This is input for DAFLOW/MODFLOW
                Bed      Bed          Ground water node of exchange
  Brch  Grid    Elev     Thickness  Conductivity Layer   Row Column
   1     2     25.300     1.00       1.00E-04       1      1     1
   1     3     24.700     1.0        1.00E-04       1      2     2
   1     4     24.100     1.0        1.00E-04       1      3     3
   1     5     23.500     1.0        1.00E-04       1      4     4
   1     6     22.900     1.0        1.00E-04       1      5     5
   1     7     22.300     1.0        1.00E-04       1      6     6
   1     8     21.700     1.0        1.00E-04       1      7     7
   1     9     21.100     1.0        1.00E-04       1      8     8
   1    10     20.500     1.0        1.00E-04       1      9     9
   1    11     19.900     1.0        1.00E-04       1     10    10
   1    12     19.300     1.0        1.00E-04       1     11    11
   2     2     25.300     1.00       1.00E-04       1      1    21
   2     3     24.700     1.0        1.00E-04       1      2    20
   2     4     24.100     1.0        1.00E-04       1      3    19
   2     5     23.500     1.0        1.00E-04       1      4    18
   2     6     22.900     1.0        1.00E-04       1      5    17
   2     7     22.300     1.0        1.00E-04       1      6    16
   2     8     21.700     1.0        1.00E-04       1      7    15
   2     9     21.100     1.0        1.00E-04       1      8    14
   2    10     20.500     1.0        1.00E-04       1      9    13
   2    11     19.900     1.0        1.00E-04       1     10    12
   2    12     19.300     1.0        1.00E-04       1     11    11
   3     2     19.300     1.00       1.00E-04       1     11    11
   3     3     18.700     1.0        1.00E-04       1     12    11
   3     4     18.100     1.0        1.00E-04       1     13    11
   3     5     17.500     1.0        1.00E-04       1     14    11
   3     6     16.900     1.0        1.00E-04       1     15    11
   3     7     16.300     1.0        1.00E-04       1     16    11
   3     8     15.700     1.0        1.00E-04       1     17    11
   3     9     15.100     1.0        1.00E-04       1     18    11
   3    10     14.500     1.0        1.00E-04       1     19    11
   3    11     13.900     1.0        1.00E-04       1     20    11
   3    12     13.300     1.0        1.00E-04       1     21    11
   3    13     12.700     1.0        1.00E-04       1     22    11
   3    14     12.100     1.0        1.00E-04       1     23    11
   3    15     11.500     1.0        1.00E-04       1     24    11
   3    16     10.900     1.0        1.00E-04       1     25    11
   3    17     10.300     1.0        1.00E-04       1     26    11
   3    18      9.700     1.0        1.00E-04       1     27    11
   3    19      9.100     1.0        1.00E-04       1     28    11
   3    20      8.500     1.0        1.00E-04       1     29    11
   3    21      7.900     1.0        1.00E-04       1     30    11
   3    22      7.300     1.0        1.00E-04       1     31    11
   3    23      6.700     1.0        1.00E-04       1     32    11
   3    24      6.100     1.0        1.00E-04       1     33    11
   3    25      5.500     1.0        1.00E-04       1     34    11
   3    26      4.900     1.0        1.00E-04       1     35    11
   3    27      4.300     1.0        1.00E-04       1     36    11
   3    28      3.700     1.0        1.00E-04       1     37    11
   3    29      3.100     1.0        1.00E-04       1     38    11
   3    30      2.500     1.0        1.00E-04       1     39    11
   3    31      1.900     1.0        1.00E-04       1     40    11
   3    32      1.300     1.0        1.00E-08       1     41    11
  IDAFCB IDBG IDAFBK
  44      0     0
