                                  MODFLOW-2000
      U.S. GEOLOGICAL SURVEY MODULAR FINITE-DIFFERENCE GROUND-WATER FLOW MODEL
                             VERSION 1.7 12/04/2001


 This model run produced both GLOBAL and LIST files.  This is the GLOBAL file.

 GLOBAL LISTING FILE: tc1.glo
                         UNIT  11

 OPENING tc1.lst
 FILE TYPE:LIST   UNIT  12   STATUS:REPLACE
 FORMAT:FORMATTED              ACCESS:SEQUENTIAL          
#                                                                                                                                                                                                       
# Obs-Sen-Pes process input files                                                                                                                                                                       

 OPENING ../data/tc1.obs
 FILE TYPE:OBS   UNIT  21   STATUS:OLD    
 FORMAT:FORMATTED              ACCESS:SEQUENTIAL          

 OPENING ../data/tc1.ohd
 FILE TYPE:HOB   UNIT  22   STATUS:OLD    
 FORMAT:FORMATTED              ACCESS:SEQUENTIAL          

 OPENING ../data/tc1.orv
 FILE TYPE:RVOB   UNIT  23   STATUS:OLD    
 FORMAT:FORMATTED              ACCESS:SEQUENTIAL          

 OPENING ../data/tc1.sen
 FILE TYPE:SEN   UNIT  24   STATUS:OLD    
 FORMAT:FORMATTED              ACCESS:SEQUENTIAL          

 OPENING ../data/tc1.pes
 FILE TYPE:PES   UNIT  25   STATUS:OLD    
 FORMAT:FORMATTED              ACCESS:SEQUENTIAL          
#                                                                                                                                                                                                       
# Global input files                                                                                                                                                                                    

 OPENING ../data/tc1.dis
 FILE TYPE:DIS   UNIT  31   STATUS:OLD    
 FORMAT:FORMATTED              ACCESS:SEQUENTIAL          

 OPENING ../data/tc1.zon
 FILE TYPE:ZONE   UNIT  32   STATUS:OLD    
 FORMAT:FORMATTED              ACCESS:SEQUENTIAL          

 OPENING ../data/tc1.mlt
 FILE TYPE:MULT   UNIT  33   STATUS:OLD    
 FORMAT:FORMATTED              ACCESS:SEQUENTIAL          
#                                                                                                                                                                                                       
# Flow process input files                                                                                                                                                                              

 OPENING ../data/tc1.bas
 FILE TYPE:BAS6   UNIT  41   STATUS:OLD    
 FORMAT:FORMATTED              ACCESS:SEQUENTIAL          

 OPENING ../data/tc1.lpf
 FILE TYPE:LPF   UNIT  42   STATUS:OLD    
 FORMAT:FORMATTED              ACCESS:SEQUENTIAL          

 OPENING ../data/tc1.wel
 FILE TYPE:WEL   UNIT  43   STATUS:OLD    
 FORMAT:FORMATTED              ACCESS:SEQUENTIAL          

 OPENING ../data/tc1.pcg
 FILE TYPE:PCG   UNIT  44   STATUS:OLD    
 FORMAT:FORMATTED              ACCESS:SEQUENTIAL          

 OPENING ../data/tc1.oc
 FILE TYPE:OC   UNIT  45   STATUS:OLD    
 FORMAT:FORMATTED              ACCESS:SEQUENTIAL          

 OPENING ../data/tc1.ghb
 FILE TYPE:GHB   UNIT  46   STATUS:OLD    
 FORMAT:FORMATTED              ACCESS:SEQUENTIAL          

 OPENING ../data/tc1.riv
 FILE TYPE:RIV   UNIT  47   STATUS:OLD    
 FORMAT:FORMATTED              ACCESS:SEQUENTIAL          

 OPENING ../data/tc1.rch
 FILE TYPE:RCH   UNIT  48   STATUS:OLD    
 FORMAT:FORMATTED              ACCESS:SEQUENTIAL          

 THE FREE FORMAT OPTION HAS BEEN SELECTED

 DISCRETIZATION INPUT DATA READ FROM UNIT 31
 # DIS file for test case tc1
 #
    2 LAYERS        18 ROWS        18 COLUMNS
   5 STRESS PERIOD(S) IN SIMULATION
 MODEL TIME UNIT IS SECONDS
 MODEL LENGTH UNIT IS METERS
 THE GROUND-WATER TRANSPORT PROCESS IS INACTIVE

 THE OBSERVATION PROCESS IS ACTIVE
 THE SENSITIVITY PROCESS IS ACTIVE
 THE PARAMETER-ESTIMATION PROCESS IS ACTIVE

 MODE: PARAMETER ESTIMATION


 ZONE OPTION, INPUT READ FROM UNIT 32
     1 ZONE ARRAYS

 MULTIPLIER OPTION, INPUT READ FROM UNIT 33
   3 MULTIPLIER ARRAYS
  Confining bed flag for each layer:
   1   0

       7164  ELEMENTS OF GX ARRAY USED OUT OF       7164
        648  ELEMENTS OF GZ ARRAY USED OUT OF        648
        972  ELEMENTS OF IG ARRAY USED OUT OF        972

                     DELR =   1000.00    

                     DELC =   1000.00    

 TOP ELEVATION OF LAYER 1 =   150.000    

   MODEL LAYER BOTTOM EL. =   100.000     FOR LAYER   1

 BOT. EL. OF QUASI-3D BED =   90.0000     FOR LAYER   1

   MODEL LAYER BOTTOM EL. =   40.0000     FOR LAYER   2


 STRESS PERIOD     LENGTH       TIME STEPS     MULTIPLIER FOR DELT    SS FLAG
 ----------------------------------------------------------------------------
        1         1.000000          1                    1.000         SS
        2         87162.00          1                    1.000         TR
        3         261486.0          1                    1.000         TR
        4         522972.0          1                    1.000         TR
        5        2.3567450E+07      9                    1.200         TR

 COMBINED STEADY-STATE AND TRANSIENT SIMULATION






            MULT. ARRAY: MULTARR_3 
 READING ON UNIT  33 WITH FORMAT: (18F3.0)            

          1      2      3      4      5      6      7      8      9     10
         11     12     13     14     15     16     17     18
 .........................................................................
   1     1.0    1.0    2.0    2.0    3.0    3.0    4.0    4.0    5.0    5.0
         6.0    6.0    7.0    7.0    8.0    8.0    9.0    9.0
   2     1.0    1.0    2.0    2.0    3.0    3.0    4.0    4.0    5.0    5.0
         6.0    6.0    7.0    7.0    8.0    8.0    9.0    9.0
   3     1.0    1.0    2.0    2.0    3.0    3.0    4.0    4.0    5.0    5.0
         6.0    6.0    7.0    7.0    8.0    8.0    9.0    9.0
   4     1.0    1.0    2.0    2.0    3.0    3.0    4.0    4.0    5.0    5.0
         6.0    6.0    7.0    7.0    8.0    8.0    9.0    9.0
   5     1.0    1.0    2.0    2.0    3.0    3.0    4.0    4.0    5.0    5.0
         6.0    6.0    7.0    7.0    8.0    8.0    9.0    9.0
   6     1.0    1.0    2.0    2.0    3.0    3.0    4.0    4.0    5.0    5.0
         6.0    6.0    7.0    7.0    8.0    8.0    9.0    9.0
   7     1.0    1.0    2.0    2.0    3.0    3.0    4.0    4.0    5.0    5.0
         6.0    6.0    7.0    7.0    8.0    8.0    9.0    9.0
   8     1.0    1.0    2.0    2.0    3.0    3.0    4.0    4.0    5.0    5.0
         6.0    6.0    7.0    7.0    8.0    8.0    9.0    9.0
   9     1.0    1.0    2.0    2.0    3.0    3.0    4.0    4.0    5.0    5.0
         6.0    6.0    7.0    7.0    8.0    8.0    9.0    9.0
  10     1.0    1.0    2.0    2.0    3.0    3.0    4.0    4.0    5.0    5.0
         6.0    6.0    7.0    7.0    8.0    8.0    9.0    9.0
  11     1.0    1.0    2.0    2.0    3.0    3.0    4.0    4.0    5.0    5.0
         6.0    6.0    7.0    7.0    8.0    8.0    9.0    9.0
  12     1.0    1.0    2.0    2.0    3.0    3.0    4.0    4.0    5.0    5.0
         6.0    6.0    7.0    7.0    8.0    8.0    9.0    9.0
  13     1.0    1.0    2.0    2.0    3.0    3.0    4.0    4.0    5.0    5.0
         6.0    6.0    7.0    7.0    8.0    8.0    9.0    9.0
  14     1.0    1.0    2.0    2.0    3.0    3.0    4.0    4.0    5.0    5.0
         6.0    6.0    7.0    7.0    8.0    8.0    9.0    9.0
  15     1.0    1.0    2.0    2.0    3.0    3.0    4.0    4.0    5.0    5.0
         6.0    6.0    7.0    7.0    8.0    8.0    9.0    9.0
  16     1.0    1.0    2.0    2.0    3.0    3.0    4.0    4.0    5.0    5.0
         6.0    6.0    7.0    7.0    8.0    8.0    9.0    9.0
  17     1.0    1.0    2.0    2.0    3.0    3.0    4.0    4.0    5.0    5.0
         6.0    6.0    7.0    7.0    8.0    8.0    9.0    9.0
  18     1.0    1.0    2.0    2.0    3.0    3.0    4.0    4.0    5.0    5.0
         6.0    6.0    7.0    7.0    8.0    8.0    9.0    9.0

  MULT. ARRAY: mlt_rch    =  3.170979E-10

  MULT. ARRAY: FIFTIETH   =  2.000000E-02



             ZONE ARRAY: ZONES_1   
 READING ON UNIT  32 WITH FORMAT: (9I8)               

        1   2   3   4   5   6   7   8   9  10  11  12  13  14  15  16  17  18
 ............................................................................
   1    1   1   1   1   1   1   1   1   1   2   2   2   2   2   2   2   2   2
   2    1   1   1   1   1   1   1   1   1   2   2   2   2   2   2   2   2   2
   3    1   1   1   1   1   1   1   1   1   2   2   2   2   2   2   2   2   2
   4    1   1   1   1   1   1   1   1   1   2   2   2   2   2   2   2   2   2
   5    1   1   1   1   1   1   1   1   1   2   2   2   2   2   2   2   2   2
   6    1   1   1   1   1   1   1   1   1   2   2   2   2   2   2   2   2   2
   7    1   1   1   1   1   1   1   1   1   2   2   2   2   2   2   2   2   2
   8    1   1   1   1   1   1   1   1   1   2   2   2   2   2   2   2   2   2
   9    1   1   1   1   1   1   1   1   1   2   2   2   2   2   2   2   2   2
  10    1   1   1   1   1   1   1   1   1   2   2   2   2   2   2   2   2   2
  11    1   1   1   1   1   1   1   1   1   2   2   2   2   2   2   2   2   2
  12    1   1   1   1   1   1   1   1   1   2   2   2   2   2   2   2   2   2
  13    1   1   1   1   1   1   1   1   1   2   2   2   2   2   2   2   2   2
  14    1   1   1   1   1   1   1   1   1   2   2   2   2   2   2   2   2   2
  15    1   1   1   1   1   1   1   1   1   2   2   2   2   2   2   2   2   2
  16    1   1   1   1   1   1   1   1   1   2   2   2   2   2   2   2   2   2
  17    1   1   1   1   1   1   1   1   1   2   2   2   2   2   2   2   2   2
  18    1   1   1   1   1   1   1   1   1   2   2   2   2   2   2   2   2   2

 LPF1 -- LAYER PROPERTY FLOW PACKAGE, VERSION 1, 1/11/2000
         INPUT READ FROM UNIT 42
 # LPF input file for test case tc1
 #
 HEAD AT CELLS THAT CONVERT TO DRY=  -999.00    
     7 Named Parameters     

   LAYER FLAGS:
 LAYER       LAYTYP        LAYAVG         CHANI        LAYVKA        LAYWET
 ---------------------------------------------------------------------------
    1             0             0     1.000E+00             1             0
    2             0             0     1.000E+00             1             0

   INTERPRETATION OF LAYER FLAGS:
                        INTERBLOCK     HORIZONTAL    DATA IN
         LAYER TYPE   TRANSMISSIVITY   ANISOTROPY   ARRAY VKA   WETTABILITY
 LAYER      (LAYTYP)      (LAYAVG)       (CHANI)      (LAYVKA)      (LAYWET)
 ---------------------------------------------------------------------------
    1      CONFINED      HARMONIC     1.000E+00    ANISOTROPY  NON-WETTABLE
    2      CONFINED      HARMONIC     1.000E+00    ANISOTROPY  NON-WETTABLE

       2592 ELEMENTS IN X ARRAY ARE USED BY LPF
         12 ELEMENTS IN IX ARRAY ARE USED BY LPF

 PCG2 -- CONJUGATE GRADIENT SOLUTION PACKAGE, VERSION 2.4, 12/29/98
 MAXIMUM OF      1 CALLS OF SOLUTION ROUTINE
 MAXIMUM OF     50 INTERNAL ITERATIONS PER CALL TO SOLUTION ROUTINE
 MATRIX PRECONDITIONING TYPE :    1
       2044 ELEMENTS IN X ARRAY ARE USED BY PCG
        350 ELEMENTS IN IX ARRAY ARE USED BY PCG
       1296 ELEMENTS IN Z ARRAY ARE USED BY PCG

 SEN1BAS6 -- SENSITIVITY PROCESS, VERSION 1.0, 10/15/98
 INPUT READ FROM UNIT  24

 NUMBER OF PARAMETER VALUES TO BE READ FROM SEN FILE:    9
 ISENALL............................................:    0
 SENSITIVITIES WILL BE STORED IN MEMORY
 FOR UP TO   9 PARAMETERS

        819 ELEMENTS IN X ARRAY ARE USED FOR SENSITIVITIES
        648 ELEMENTS IN Z ARRAY ARE USED FOR SENSITIVITIES
         18 ELEMENTS IN IX ARRAY ARE USED FOR SENSITIVITIES

 PES1BAS6 -- PARAMETER-ESTIMATION PROCESS, VERSION 1.0, 07/22/99
 INPUT READ FROM UNIT  25
 # PES file for test case tc1
 #

 MAXIMUM NUMBER OF PARAMETER-ESTIMATION ITERATIONS (MAX-ITER)  =    10
 MAXIMUM PARAMETER CORRECTION (MAX-CHANGE) ------------------- =  2.0000    
 CLOSURE CRITERION (TOL) ------------------------------------- = 0.10000E-01
 SUM OF SQUARES CLOSURE CRITERION (SOSC) --------------------- =  0.0000    

 FLAG TO GENERATE INPUT NEEDED BY BEALE-2000 (IBEFLG) -------- =     0
 FLAG TO GENERATE INPUT NEEDED BY YCINT-2000 (IYCFLG) -------- =     0
 OMIT PRINTING TO SCREEN (IF = 1) (IOSTAR) ------------------- =     0
 ADJUST GAUSS-NEWTON MATRIX WITH NEWTON UPDATES (IF = 1)(NOPT) =     0
 NUMBER OF FLETCHER-REEVES ITERATIONS (NFIT) ----------------- =     0
 CRITERION FOR ADDING MATRIX R (SOSR) ------------------------ =  0.0000    
 VALUE USED TO INCREMENT MARQUARDT PARAMETER (RMAR) ---------- = 0.10000E-02
 MARQUARDT PARAMETER MULTIPLIER (RMARM) ---------------------- =  1.5000    
 APPLY MAX-CHANGE IN REGRESSION SPACE (IF = 1) (IAP) --------- =     0

 FORMAT CODE FOR COVARIANCE AND CORRELATION MATRICES (IPRCOV)  =     6
 PRINT PARAMETER-ESTIMATION STATISTICS
     EACH ITERATION (IF > 0)  (IPRINT) ----------------------- =     0
 PRINT EIGENVALUES AND EIGENVECTORS OF
     COVARIANCE MATRIX (IF > 0)  (LPRINT) -------------------- =     0

 SEARCH DIRECTION ADJUSTMENT PARAMETER (CSA) ----------------- = 0.80000E-01
 MODIFY CONVERGENCE CRITERIA (IF > 0) (FCONV) ---------------- =  0.0000    
 CALCULATE SENSITIVITIES USING FINAL
     PARAMETER ESTIMATES (IF > 0) (LASTX) -------------------- =     0

 NUMBER OF USUALLY POS. PARAMETERS THAT MAY BE NEGATIVE (NPNG) =     0
 NUMBER OF PARAMETERS WITH CORRELATED PRIOR INFORMATION (IPR)  =     0
 NUMBER OF PRIOR-INFORMATION EQUATIONS (MPR) ----------------- =     0

    266 ELEMENTS IN X ARRAY ARE USED FOR PARAMETER ESTIMATION
    296 ELEMENTS IN Z ARRAY ARE USED FOR PARAMETER ESTIMATION
     12 ELEMENTS IN IX ARRAY ARE USED FOR PARAMETER ESTIMATION

 OBS1BAS6 -- OBSERVATION PROCESS, VERSION 1.0, 4/27/99
 INPUT READ FROM UNIT  21
 # OBS file for test case tc1
 #
 OBSERVATION GRAPH-DATA OUTPUT FILES
 WILL BE PRINTED AND NAMED USING THE BASE: tc1
 DIMENSIONLESS SCALED OBSERVATION SENSITIVITIES WILL BE PRINTED

 HEAD OBSERVATIONS -- INPUT READ FROM UNIT  22

 NUMBER OF HEADS....................................:   32
   NUMBER OF MULTILAYER HEADS.......................:    0
   MAXIMUM NUMBER OF LAYERS FOR MULTILAYER HEADS....:    0

 OBS1RIV6 -- OBSERVATION PROCESS (RIVER FLOW OBSERVATIONS)
 VERSION 1.0, 10/15/98
 INPUT READ FROM UNIT  23

 NUMBER OF FLOW-OBSERVATION RIVER-CELL GROUPS.......:    1
   NUMBER OF CELLS IN RIVER-CELL GROUPS.............:   18
   NUMBER OF RIVER-CELL FLOWS.......................:    3

    1543 ELEMENTS IN X ARRAY ARE USED FOR OBSERVATIONS
      20 ELEMENTS IN Z ARRAY ARE USED FOR OBSERVATIONS
     339 ELEMENTS IN IX ARRAY ARE USED FOR OBSERVATIONS

 COMMON ERROR VARIANCE FOR ALL OBSERVATIONS SET TO:       1.000    

       7264  ELEMENTS OF X ARRAY USED OUT OF       7264
       2260  ELEMENTS OF Z ARRAY USED OUT OF       2260
        731  ELEMENTS OF IX ARRAY USED OUT OF        731
       5832  ELEMENTS OF XHS ARRAY USED OUT OF       5832

 INFORMATION ON PARAMETERS LISTED IN SEN FILE
                                         LOWER         UPPER       ALTERNATE
                        VALUE IN SEN   REASONABLE    REASONABLE     SCALING
    NAME     ISENS  LN   INPUT FILE      LIMIT         LIMIT         FACTOR
 ----------  -----  --  ------------  ------------  ------------  ------------
 WELLS_TR      1     0   -1.1000       -1.4000      -0.80000       0.10000E-02
 RCH_ZONE_1    1     0    63.072        30.000        80.000       0.10000E-01
 RCH_ZONE_2    1     0    31.536        20.000        60.000       0.10000E-01
 RIVERS        1     1   0.12000E-02   0.12000E-03   0.12000E-01   0.10000E-05
 SS_1          1     1   0.13000E-02   0.13000E-03   0.13000E-01   0.10000E-05
 HK_1          1     1   0.30000E-03   0.30000E-04   0.30000E-02   0.10000E-06
 VERT_K_CB     1     1   0.10000E-06   0.10000E-07   0.10000E-05   0.10000E-09
 SS_2          1     1   0.20000E-03   0.20000E-04   0.20000E-02   0.10000E-06
 HK_2          1     1   0.40000E-04   0.40000E-05   0.40000E-03   0.10000E-07
 -----------------------------------------------------------------------------
 FOR THE PARAMETERS LISTED IN THE TABLE ABOVE, PARAMETER VALUES IN INDIVIDUAL
 PACKAGE INPUT FILES ARE REPLACED BY THE VALUES FROM THE SEN INPUT FILE.  THE
 ALTERNATE SCALING FACTOR IS USED TO SCALE SENSITIVITIES IF IT IS LARGER THAN
 THE PARAMETER VALUE IN ABSOLUTE VALUE AND THE PARAMETER IS NOT LOG-TRANSFORMED.

 ISENS IS GREATER THAN ZERO FOR    9 PARAMETERS

 HEAD OBSERVATION VARIANCES ARE MULTIPLIED BY:       1.000    

 OBSERVED HEAD DATA -- TIME OFFSETS ARE MULTIPLIED BY:   86400.    

                    REFER.
       OBSERVATION  STRESS    TIME                              STATISTIC   PLOT
  OBS#    NAME      PERIOD   OFFSET    OBSERVATION  STATISTIC     TYPE      SYM.
     1 1.0             -3    0.000       0.000       0.000      VARIANCE       1
  TRANSIENT DATA AT THIS LOCATION, ITT =   2
     1 1.0              1    0.000       101.8       1.003      VARIANCE       1
     2 1.1              3    0.000     -0.2900E-01  0.2500E-02  VARIANCE       1
     3 1.12             5    272.8     -0.1290      0.2500E-02  VARIANCE       1
 
     4 2.0             -5    0.000       0.000       0.000      VARIANCE       1
  TRANSIENT DATA AT THIS LOCATION, ITT =   2
     4 2.0              1    0.000       128.1       1.003      VARIANCE       1
     5 2.1              3    0.000     -0.4100E-01  0.2500E-02  VARIANCE       1
     6 2.2              4    0.000     -0.5570      0.2500E-02  VARIANCE       1
     7 2.8              5    97.59      -11.53      0.2500E-02  VARIANCE       1
     8 2.12             5    272.8      -14.18      0.2500E-02  VARIANCE       1
 
     9 3.0             -3    0.000       0.000       0.000      VARIANCE       1
  TRANSIENT DATA AT THIS LOCATION, ITT =   2
     9 3.0              1    0.000       156.7       1.003      VARIANCE       1
    10 3.1              3    0.000      -4.381      0.2500E-02  VARIANCE       1
    11 3.12             5    272.8      -42.54      0.2500E-02  VARIANCE       1
 
    12 4.0             -3    0.000       0.000       0.000      VARIANCE       1
  TRANSIENT DATA AT THIS LOCATION, ITT =   2
    12 4.0              1    0.000       124.9       1.003      VARIANCE       1
    13 4.1              3    0.000     -0.6700E-01  0.2500E-02  VARIANCE       1
    14 4.12             5    272.8      -14.30      0.2500E-02  VARIANCE       1
 
    15 5.0             -3    0.000       0.000       0.000      VARIANCE       1
  TRANSIENT DATA AT THIS LOCATION, ITT =   2
    15 5.0              1    0.000       141.0       1.003      VARIANCE       1
    16 5.1              3    0.000     -0.6000E-01  0.2500E-02  VARIANCE       1
    17 5.12             5    272.8      -21.68      0.2500E-02  VARIANCE       1
 
    18 6.0             -3    0.000       0.000       0.000      VARIANCE       1
  TRANSIENT DATA AT THIS LOCATION, ITT =   2
    18 6.0              1    0.000       126.5       1.003      VARIANCE       1
    19 6.1              3    0.000      0.4997E-02  0.2500E-02  VARIANCE       1
    20 6.12             5    272.8      -14.37      0.2500E-02  VARIANCE       1
 
    21 7.0             -3    0.000       0.000       0.000      VARIANCE       1
  TRANSIENT DATA AT THIS LOCATION, ITT =   2
    21 7.0              1    0.000       101.1       1.003      VARIANCE       1
    22 7.1              3    0.000      0.4800E-01  0.2500E-02  VARIANCE       1
    23 7.12             5    272.8     -0.5680      0.2500E-02  VARIANCE       1
 
    24 8.0             -3    0.000       0.000       0.000      VARIANCE       1
  TRANSIENT DATA AT THIS LOCATION, ITT =   2
    24 8.0              1    0.000       158.1       1.003      VARIANCE       1
    25 8.1              3    0.000      -5.533      0.2500E-02  VARIANCE       1
    26 8.12             5    272.8      -43.22      0.2500E-02  VARIANCE       1
 
    27 9.0             -3    0.000       0.000       0.000      VARIANCE       1
  TRANSIENT DATA AT THIS LOCATION, ITT =   2
    27 9.0              1    0.000       176.4       1.003      VARIANCE       1
    28 9.1              3    0.000     -0.9918E-03  0.2500E-02  VARIANCE       1
    29 9.12             5    272.8      -38.24      0.2500E-02  VARIANCE       1
 
    30 0.0             -3    0.000       0.000       0.000      VARIANCE       1
  TRANSIENT DATA AT THIS LOCATION, ITT =   2
    30 0.0              1    0.000       142.0       1.003      VARIANCE       1
    31 0.1              3    0.000     -0.1300E-01  0.2500E-02  VARIANCE       1
    32 0.12             5    272.8      -19.92      0.2500E-02  VARIANCE       1
 

                                                     HEAD CHANGE
                                                      REFERENCE
        OBSERVATION                   ROW     COL    OBSERVATION
  OBS#     NAME       LAY  ROW  COL  OFFSET  OFFSET   (IF > 0)
     1  1.0             1    3    1   0.000   0.000        0
     2  1.1             1    3    1   0.000   0.000        1
     3  1.12            1    3    1   0.000   0.000        1
     4  2.0             1    4    4   0.000   0.000        0
     5  2.1             1    4    4   0.000   0.000        4
     6  2.2             1    4    4   0.000   0.000        4
     7  2.8             1    4    4   0.000   0.000        4
     8  2.12            1    4    4   0.000   0.000        4
     9  3.0             1   10    9   0.000   0.000        0
    10  3.1             1   10    9   0.000   0.000        9
    11  3.12            1   10    9   0.000   0.000        9
    12  4.0             1   13    4   0.000   0.000        0
    13  4.1             1   13    4   0.000   0.000       12
    14  4.12            1   13    4   0.000   0.000       12
    15  5.0             1   14    6   0.000   0.000        0
    16  5.1             1   14    6   0.000   0.000       15
    17  5.12            1   14    6   0.000   0.000       15
    18  6.0             2    4    4   0.000   0.000        0
    19  6.1             2    4    4   0.000   0.000       18
    20  6.12            2    4    4   0.000   0.000       18
    21  7.0             2   10    1   0.000   0.000        0
    22  7.1             2   10    1   0.000   0.000       21
    23  7.12            2   10    1   0.000   0.000       21
    24  8.0             2   10    9   0.000   0.000        0
    25  8.1             2   10    9   0.000   0.000       24
    26  8.12            2   10    9   0.000   0.000       24
    27  9.0             2   10   18   0.000   0.000        0
    28  9.1             2   10   18   0.000   0.000       27
    29  9.12            2   10   18   0.000   0.000       27
    30  0.0             2   18    6   0.000   0.000        0
    31  0.1             2   18    6   0.000   0.000       30
    32  0.12            2   18    6   0.000   0.000       30

 RIVER-CELL FLOW OBSERVATION VARIANCES ARE MULTIPLIED BY:       1.000    

 OBSERVED RIVER-CELL FLOW DATA
 -- TIME OFFSETS ARE MULTIPLIED BY:   86400.    

   GROUP NUMBER:   1   BOUNDARY TYPE: RIV   NUMBER OF CELLS IN GROUP:   -18
   NUMBER OF FLOW OBSERVATIONS:     3

                                        OBSERVED
                    REFER.             RIVER FLOW
       OBSERVATION  STRESS    TIME     GAIN (-) OR              STATISTIC   PLOT
  OBS#    NAME      PERIOD   OFFSET     LOSS (+)    STATISTIC     TYPE      SYM.
    33 SS               1    0.000      -4.400      0.4000      STD. DEV.      2
    34 TR3              5    0.000      -4.100      0.3800      STD. DEV.      2
    35 TR12             5    272.8      -2.200      0.2100      STD. DEV.      2

       LAYER  ROW  COLUMN    FACTOR
          1.    1.     1.     1.00
          1.    2.     1.     1.00
          1.    3.     1.     1.00
          1.    4.     1.     1.00
          1.    5.     1.     1.00
          1.    6.     1.     1.00
          1.    7.     1.     1.00
          1.    8.     1.     1.00
          1.    9.     1.     1.00
          1.   10.     1.     1.00
          1.   11.     1.     1.00
          1.   12.     1.     1.00
          1.   13.     1.     1.00
          1.   14.     1.     1.00
          1.   15.     1.     1.00
          1.   16.     1.     1.00
          1.   17.     1.     1.00
          1.   18.     1.     1.00



                                    SOLUTION BY THE CONJUGATE-GRADIENT METHOD
                                   -------------------------------------------
                    MAXIMUM NUMBER OF CALLS TO PCG ROUTINE =        1
                        MAXIMUM ITERATIONS PER CALL TO PCG =       50
                               MATRIX PRECONDITIONING TYPE =        1
        RELAXATION FACTOR (ONLY USED WITH PRECOND. TYPE 1) =    0.10000E+01
 PARAMETER OF POLYNOMIAL PRECOND. = 2 (2) OR IS CALCULATED :        2
                         HEAD CHANGE CRITERION FOR CLOSURE =    0.10000E-04
                     RESIDUAL CHANGE CRITERION FOR CLOSURE =    0.10000E-04
            PCG HEAD AND RESIDUAL CHANGE PRINTOUT INTERVAL =      999
     PRINTING FROM SOLVER IS LIMITED(1) OR SUPPRESSED (>1) =        2
                                         DAMPING PARAMETER =    0.10000E+01

 CONVERGENCE CRITERIA FOR SENSITIVITIES
 PARAMETER      HCLOSE        RCLOSE
 ----------  ------------  ------------
 WELLS_TR     0.90909E-07   0.90909E-07
 RCH_ZONE_1   0.15855E-08   0.15855E-08
 RCH_ZONE_2   0.31710E-08   0.31710E-08
 RIVERS       0.83333E-04   0.83333E-04
 SS_1         0.76923E-04   0.76923E-04
 HK_1         0.33333E-03   0.33333E-03
 VERT_K_CB     1.0000        1.0000    
 SS_2         0.50000E-03   0.50000E-03
 HK_2         0.25000E-02   0.25000E-02
 --------------------------------------

 WETTING CAPABILITY IS NOT ACTIVE IN ANY LAYER

 PARAMETERS DEFINED IN THE LPF PACKAGE

 PARAMETER NAME:SS_1         TYPE:SS     CLUSTERS:   1
 Parameter value from package file is:   1.00000E-03
 This value has been changed to:         1.30000E-03, as read from
 the Sensitivity Process file
                LAYER:  1    MULTIPLIER ARRAY: FIFTIETH    ZONE ARRAY: ALL

 PARAMETER NAME:HK_1         TYPE:HK     CLUSTERS:   1
 Parameter value from package file is:   3.30000E-04
 This value has been changed to:         3.00000E-04, as read from
 the Sensitivity Process file
                LAYER:  1    MULTIPLIER ARRAY: NONE    ZONE ARRAY: ALL

 PARAMETER NAME:VERT_ANI_1   TYPE:VANI   CLUSTERS:   1
 Parameter value from package file is:    1.0000    
                LAYER:  1    MULTIPLIER ARRAY: NONE    ZONE ARRAY: ALL

 PARAMETER NAME:VERT_K_CB    TYPE:VKCB   CLUSTERS:   1
 Parameter value from package file is:   1.30000E-07
 This value has been changed to:         1.00000E-07, as read from
 the Sensitivity Process file
                LAYER:  1    MULTIPLIER ARRAY: NONE    ZONE ARRAY: ALL

 PARAMETER NAME:SS_2         TYPE:SS     CLUSTERS:   1
 Parameter value from package file is:   2.30000E-04
 This value has been changed to:         2.00000E-04, as read from
 the Sensitivity Process file
                LAYER:  2    MULTIPLIER ARRAY: FIFTIETH    ZONE ARRAY: ALL

 PARAMETER NAME:HK_2         TYPE:HK     CLUSTERS:   1
 Parameter value from package file is:   4.30000E-05
 This value has been changed to:         4.00000E-05, as read from
 the Sensitivity Process file
                LAYER:  2    MULTIPLIER ARRAY: MULTARR_3    ZONE ARRAY: ALL

 PARAMETER NAME:VERT_ANI_2   TYPE:VANI   CLUSTERS:   1
 Parameter value from package file is:    1.0000    
                LAYER:  2    MULTIPLIER ARRAY: NONE    ZONE ARRAY: ALL

    HYD. COND. ALONG ROWS FOR LAYER   1 WILL BE DEFINED BY PARAMETERS
 (PRINT FLAG=  21)

  HORIZ. TO VERTICAL ANI. FOR LAYER   1 WILL BE DEFINED BY PARAMETERS
 (PRINT FLAG=  21)

         SPECIFIC STORAGE FOR LAYER   1 WILL BE DEFINED BY PARAMETERS
 (PRINT FLAG=  21)

 QUASI3D VERT. HYD. COND. FOR LAYER   1 WILL BE DEFINED BY PARAMETERS
 (PRINT FLAG=  21)

    HYD. COND. ALONG ROWS FOR LAYER   2 WILL BE DEFINED BY PARAMETERS
 (PRINT FLAG=  21)

  HORIZ. TO VERTICAL ANI. FOR LAYER   2 WILL BE DEFINED BY PARAMETERS
 (PRINT FLAG=  21)

         SPECIFIC STORAGE FOR LAYER   2 WILL BE DEFINED BY PARAMETERS
 (PRINT FLAG=  21)


     1 Well parameters

 PARAMETER NAME:WELLS_TR     TYPE:Q   
 Parameter value from package file is:   -1.1000    
   NUMBER OF ENTRIES:      2

 WELL NO.  LAYER   ROW   COL   STRESS FACTOR   
 ----------------------------------------------
      1      1      9     10       1.000    
      2      2      9     10       1.000    


     1 River parameters

 PARAMETER NAME:RIVERS       TYPE:RIV 
 Parameter value from package file is:   1.20000E-03
   NUMBER OF ENTRIES:     18

 REACH NO.  LAYER   ROW   COL     STAGE    STRESS FACTOR     BOTTOM EL.   
 -------------------------------------------------------------------------
      1      1      1      1       100.0           1000.           90.00    
      2      1      2      1       100.0           1000.           90.00    
      3      1      3      1       100.0           1000.           90.00    
      4      1      4      1       100.0           1000.           90.00    
      5      1      5      1       100.0           1000.           90.00    