                                  MODFLOW-2000
      U.S. GEOLOGICAL SURVEY MODULAR FINITE-DIFFERENCE GROUND-WATER FLOW MODEL
                             VERSION 1.7 12/04/2001


 This model run produced both GLOBAL and LIST files.  This is the GLOBAL file.

 GLOBAL LISTING FILE: tc1huf.glo
                         UNIT   3

 OPENING tc1huf.lst
 FILE TYPE:LIST   UNIT   4   STATUS:REPLACE
 FORMAT:FORMATTED              ACCESS:SEQUENTIAL          
# Observation-Process Files                                                                                                                                                                             

 OPENING ../data/tc1huf.obs
 FILE TYPE:OBS   UNIT  40   STATUS:OLD    
 FORMAT:FORMATTED              ACCESS:SEQUENTIAL          

 OPENING ../data/tc1huf.hob
 FILE TYPE:HOB   UNIT  41   STATUS:OLD    
 FORMAT:FORMATTED              ACCESS:SEQUENTIAL          

 OPENING ../data/tc1huf.ogb
 FILE TYPE:GBOB   UNIT  42   STATUS:OLD    
 FORMAT:FORMATTED              ACCESS:SEQUENTIAL          
# Sensitivity and Parameter-Estimation Process Files                                                                                                                                                    

 OPENING ../data/tc1huf.sen
 FILE TYPE:SEN   UNIT  39   STATUS:OLD    
 FORMAT:FORMATTED              ACCESS:SEQUENTIAL          

 OPENING ../data/tc1huf.pes
 FILE TYPE:PES   UNIT  43   STATUS:OLD    
 FORMAT:FORMATTED              ACCESS:SEQUENTIAL          
#Flow-Process files                                                                                                                                                                                     

 OPENING ../data/tc1huf.bas
 FILE TYPE:BAS6   UNIT  55   STATUS:OLD    
 FORMAT:FORMATTED              ACCESS:SEQUENTIAL          

 OPENING ../data/tc1huf.huf
 FILE TYPE:HUF   UNIT   7   STATUS:OLD    
 FORMAT:FORMATTED              ACCESS:SEQUENTIAL          

 OPENING ../data/tc1huf.wel
 FILE TYPE:WEL   UNIT   8   STATUS:OLD    
 FORMAT:FORMATTED              ACCESS:SEQUENTIAL          

 OPENING ../data/tc1huf.pcg
 FILE TYPE:PCG   UNIT   9   STATUS:OLD    
 FORMAT:FORMATTED              ACCESS:SEQUENTIAL          

 OPENING ../data/tc1huf.dis
 FILE TYPE:DIS   UNIT  10   STATUS:OLD    
 FORMAT:FORMATTED              ACCESS:SEQUENTIAL          

 OPENING ../data/tc1huf.oc
 FILE TYPE:OC   UNIT  11   STATUS:OLD    
 FORMAT:FORMATTED              ACCESS:SEQUENTIAL          

 OPENING ../data/tc1huf.ghb
 FILE TYPE:GHB   UNIT  12   STATUS:OLD    
 FORMAT:FORMATTED              ACCESS:SEQUENTIAL          

 OPENING ../data/tc1huf.riv
 FILE TYPE:RIV   UNIT  13   STATUS:OLD    
 FORMAT:FORMATTED              ACCESS:SEQUENTIAL          

 OPENING ../data/tc1huf.sh
 FILE TYPE:DATA   UNIT  14   STATUS:UNKNOWN
 FORMAT:FORMATTED              ACCESS:SEQUENTIAL          

 OPENING ../data/tc1huf.rch
 FILE TYPE:RCH   UNIT  31   STATUS:OLD    
 FORMAT:FORMATTED              ACCESS:SEQUENTIAL          

 OPENING ../data/tc1huf.mlt
 FILE TYPE:MULT   UNIT  32   STATUS:OLD    
 FORMAT:FORMATTED              ACCESS:SEQUENTIAL          

 OPENING ../data/tc1huf.zon
 FILE TYPE:ZONE   UNIT  33   STATUS:OLD    
 FORMAT:FORMATTED              ACCESS:SEQUENTIAL          

 THE FREE FORMAT OPTION HAS BEEN SELECTED

 DISCRETIZATION INPUT DATA READ FROM UNIT 10
 # DIS file for test case tc1tr
 #
    3 LAYERS        18 ROWS        18 COLUMNS
   4 STRESS PERIOD(S) IN SIMULATION
 MODEL TIME UNIT IS SECONDS
 MODEL LENGTH UNIT IS FEET
 THE GROUND-WATER TRANSPORT PROCESS IS INACTIVE

 THE OBSERVATION PROCESS IS ACTIVE
 THE SENSITIVITY PROCESS IS ACTIVE
 THE PARAMETER-ESTIMATION PROCESS IS ACTIVE

 MODE: PARAMETER ESTIMATION


 ZONE OPTION, INPUT READ FROM UNIT 33
     1 ZONE ARRAYS

 MULTIPLIER OPTION, INPUT READ FROM UNIT 32
   2 MULTIPLIER ARRAYS
  Confining bed flag for each layer:
   0   0   0

       9432  ELEMENTS OF GX ARRAY USED OUT OF       9432
        972  ELEMENTS OF GZ ARRAY USED OUT OF        972
       1296  ELEMENTS OF IG ARRAY USED OUT OF       1296

                     DELR =   1000.00    

                     DELC =   1000.00    

 TOP ELEVATION OF LAYER 1 =   150.000    

   MODEL LAYER BOTTOM EL. =   100.000     FOR LAYER   1

   MODEL LAYER BOTTOM EL. =   90.0000     FOR LAYER   2

   MODEL LAYER BOTTOM EL. =   40.0000     FOR LAYER   3


 STRESS PERIOD     LENGTH       TIME STEPS     MULTIPLIER FOR DELT    SS FLAG
 ----------------------------------------------------------------------------
        1         87162.00          1                    1.200         TR
        2         261486.0          1                    1.200         TR
        3         522972.0          1                    1.200         TR
        4        2.3567440E+07      9                    1.200         TR

 TRANSIENT SIMULATION






            MULT. ARRAY: TMULT     
 READING ON UNIT  32 WITH FORMAT: (18F3.0)            



            MULT. ARRAY: RCHMULT   
 READING ON UNIT  32 WITH FORMAT: (9F8.0)             



             ZONE ARRAY: RCHZONE   
 READING ON UNIT  33 WITH FORMAT: (18I2)              

 HUF1 -- HYDROGEOLOGIC-UNIT FLOW PACKAGE, ' VERSION 1.02 ERA, 05/31/2001
 INPUT READ FROM UNIT  7

 # HUF file for Test Case 1
 #
 HEAD AT CELLS THAT CONVERT TO DRY=  -999.00    
 Hydrogeologic-Unit Flow Package Active with  16 parameters
    16 Named Parameters     
 TRANSIENT SIMULATION

   INTERPRETATION OF LAYER FLAGS:
 LAYER     LTHUF    LAYER TYPE     LAYWT WETTABILITY
 ---------------------------------------------------------------------------
    1         1   CONVERTIBLE         0  NON-WETTABLE
    2         2   CONVERTIBLE         0  NON-WETTABLE
    3         3   CONVERTIBLE         0  NON-WETTABLE

       7776 ELEMENTS IN X ARRAY ARE USED BY HUF
         20 ELEMENTS IN IX ARRAY ARE USED BY HUF

 PCG2 -- CONJUGATE GRADIENT SOLUTION PACKAGE, VERSION 2.4, 12/29/98
 MAXIMUM OF    500 CALLS OF SOLUTION ROUTINE
 MAXIMUM OF      8 INTERNAL ITERATIONS PER CALL TO SOLUTION ROUTINE
 MATRIX PRECONDITIONING TYPE :    1
      10916 ELEMENTS IN X ARRAY ARE USED BY PCG
      28000 ELEMENTS IN IX ARRAY ARE USED BY PCG
       1944 ELEMENTS IN Z ARRAY ARE USED BY PCG

 SEN1BAS6 -- SENSITIVITY PROCESS, VERSION 1.0, 10/15/98
 INPUT READ FROM UNIT  39

 NUMBER OF PARAMETER VALUES TO BE READ FROM SEN FILE:   16
 ISENALL............................................:    0
 SENSITIVITIES WILL BE STORED IN MEMORY
 FOR UP TO  16 PARAMETERS

       1260 ELEMENTS IN X ARRAY ARE USED FOR SENSITIVITIES
        972 ELEMENTS IN Z ARRAY ARE USED FOR SENSITIVITIES
         32 ELEMENTS IN IX ARRAY ARE USED FOR SENSITIVITIES

 PES1BAS6 -- PARAMETER-ESTIMATION PROCESS, VERSION 1.0, 07/22/99
 INPUT READ FROM UNIT  43
 # PES file for test case tc2
 #

 MAXIMUM NUMBER OF PARAMETER-ESTIMATION ITERATIONS (MAX-ITER)  =    30
 MAXIMUM PARAMETER CORRECTION (MAX-CHANGE) ------------------- =  2.0000    
 CLOSURE CRITERION (TOL) ------------------------------------- = 0.10000E-02
 SUM OF SQUARES CLOSURE CRITERION (SOSC) --------------------- =  0.0000    

 FLAG TO GENERATE INPUT NEEDED BY BEALE-2000 (IBEFLG) -------- =     0
 FLAG TO GENERATE INPUT NEEDED BY YCINT-2000 (IYCFLG) -------- =     0
 OMIT PRINTING TO SCREEN (IF = 1) (IOSTAR) ------------------- =     0
 ADJUST GAUSS-NEWTON MATRIX WITH NEWTON UPDATES (IF = 1)(NOPT) =     0
 NUMBER OF FLETCHER-REEVES ITERATIONS (NFIT) ----------------- =     0
 CRITERION FOR ADDING MATRIX R (SOSR) ------------------------ =  0.0000    
 VALUE USED TO INCREMENT MARQUARDT PARAMETER (RMAR) ---------- = 0.10000E-02
 MARQUARDT PARAMETER MULTIPLIER (RMARM) ---------------------- =  1.5000    
 APPLY MAX-CHANGE IN REGRESSION SPACE (IF = 1) (IAP) --------- =     0

 FORMAT CODE FOR COVARIANCE AND CORRELATION MATRICES (IPRCOV)  =     8
 PRINT PARAMETER-ESTIMATION STATISTICS
     EACH ITERATION (IF > 0)  (IPRINT) ----------------------- =     0
 PRINT EIGENVALUES AND EIGENVECTORS OF
     COVARIANCE MATRIX (IF > 0)  (LPRINT) -------------------- =     0

 SEARCH DIRECTION ADJUSTMENT PARAMETER (CSA) ----------------- = 0.80000E-01
 MODIFY CONVERGENCE CRITERIA (IF > 0) (FCONV) ---------------- =  0.0000    
 CALCULATE SENSITIVITIES USING FINAL
     PARAMETER ESTIMATES (IF > 0) (LASTX) -------------------- =     0

 NUMBER OF USUALLY POS. PARAMETERS THAT MAY BE NEGATIVE (NPNG) =     0
 NUMBER OF PARAMETERS WITH CORRELATED PRIOR INFORMATION (IPR)  =     0
 NUMBER OF PRIOR-INFORMATION EQUATIONS (MPR) ----------------- =     0

    873 ELEMENTS IN X ARRAY ARE USED FOR PARAMETER ESTIMATION
    817 ELEMENTS IN Z ARRAY ARE USED FOR PARAMETER ESTIMATION
     32 ELEMENTS IN IX ARRAY ARE USED FOR PARAMETER ESTIMATION

 OBS1BAS6 -- OBSERVATION PROCESS, VERSION 1.0, 4/27/99
 INPUT READ FROM UNIT  40
 OBSERVATION GRAPH-DATA OUTPUT FILES
 WILL BE PRINTED AND NAMED USING THE BASE: tc1huf
 DIMENSIONLESS SCALED OBSERVATION SENSITIVITIES WILL BE PRINTED

 HEAD OBSERVATIONS -- INPUT READ FROM UNIT  41

 NUMBER OF HEADS....................................:   48
   NUMBER OF MULTILAYER HEADS.......................:    0
   MAXIMUM NUMBER OF LAYERS FOR MULTILAYER HEADS....:    0

 OBS1GHB6 -- OBSERVATION PROCESS (GENERAL HEAD BOUNDARY FLOW OBSERVATIONS)
 VERSION 1.0, 10/15/98
 INPUT READ FROM UNIT  42

 NUMBER OF FLOW-OBSERVATION GENERAL-HEAD-CELL GROUPS:    1
   NUMBER OF CELLS IN GENERAL-HEAD-CELL GROUPS......:   72
   NUMBER OF GENERAL-HEAD-CELL FLOWS................:    4

    3655 ELEMENTS IN X ARRAY ARE USED FOR OBSERVATIONS
      30 ELEMENTS IN Z ARRAY ARE USED FOR OBSERVATIONS
     503 ELEMENTS IN IX ARRAY ARE USED FOR OBSERVATIONS

 COMMON ERROR VARIANCE FOR ALL OBSERVATIONS SET TO:       1.000    

      24480  ELEMENTS OF X ARRAY USED OUT OF      24480
       3763  ELEMENTS OF Z ARRAY USED OUT OF       3763
      28587  ELEMENTS OF IX ARRAY USED OUT OF      28587
      15552  ELEMENTS OF XHS ARRAY USED OUT OF      15552

 INFORMATION ON PARAMETERS LISTED IN SEN FILE
                                         LOWER         UPPER       ALTERNATE
                        VALUE IN SEN   REASONABLE    REASONABLE     SCALING
    NAME     ISENS  LN   INPUT FILE      LIMIT         LIMIT         FACTOR
 ----------  -----  --  ------------  ------------  ------------  ------------
 HK1           1     0   0.70000E-04   -1.4000      -0.80000       0.80000    
 HK2           0     0   0.20000E-06   0.20000E-08   0.20000E-06   0.20000E-06
 HK3           1     0   0.40000E-04   0.10000E-08   0.10000E-06   0.10000E-06
 HK4           1     0   0.63000E-04   0.10000E-08   0.10000E-06   0.10000E-06
 VKA1          0     0   0.30000E-03   -1.4000      -0.80000       0.80000    
 VKA2          0     0   0.20000E-06   0.20000E-08   0.20000E-06   0.20000E-06
 VKA3          0     0   0.40000E-04   0.10000E-08   0.10000E-06   0.10000E-06
 VKA4          0     0   0.40000E-04   0.10000E-08   0.10000E-06   0.10000E-06
 SS1           1     0   0.14000E-02   0.10000E-03   0.10000E-01   0.10000E-01
 SS2           0     0   0.10000E-05   0.10000E-03   0.10000E-01   0.10000E-01
 SS3           1     0   0.13000E-02   0.10000E-03   0.10000E-01   0.10000E-01
 SS4           1     0   0.12000E-02   0.10000E-03   0.10000E-01   0.10000E-01
 SY1           1     0   0.80000E-01   0.10000E-03   0.10000E-01   0.10000E-01
 SY2           0     0   0.10000E-01   0.10000E-03   0.10000E-01   0.10000E-01
 SY3           0     0   0.10000       0.10000E-03   0.10000E-01   0.10000E-01
 SY4           0     0   0.10000       0.10000E-03   0.10000E-01   0.10000E-01
 -----------------------------------------------------------------------------
 FOR THE PARAMETERS LISTED IN THE TABLE ABOVE, PARAMETER VALUES IN INDIVIDUAL
 PACKAGE INPUT FILES ARE REPLACED BY THE VALUES FROM THE SEN INPUT FILE.  THE
 ALTERNATE SCALING FACTOR IS USED TO SCALE SENSITIVITIES IF IT IS LARGER THAN
 THE PARAMETER VALUE IN ABSOLUTE VALUE AND THE PARAMETER IS NOT LOG-TRANSFORMED.

 ISENS IS GREATER THAN ZERO FOR    7 PARAMETERS

 HEAD OBSERVATION VARIANCES ARE MULTIPLIED BY:       1.000    

 OBSERVED HEAD DATA -- TIME OFFSETS ARE MULTIPLIED BY:   1.0000    

                    REFER.
       OBSERVATION  STRESS    TIME                              STATISTIC   PLOT
  OBS#    NAME      PERIOD   OFFSET    OBSERVATION  STATISTIC     TYPE      SYM.
     1 W2L             -4    0.000       979.0       5.000      STD. DEV.      1
  TRANSIENT DATA AT THIS LOCATION, ITT =   1
     1 H1_8_8_1         1   0.8716E+05   152.3       1.000      STD. DEV.      1
     2 H1_8_8_2         2   0.2615E+06   152.3       1.000      STD. DEV.      1
     3 H1_8_8_3         3   0.5230E+06   152.2       1.000      STD. DEV.      1
     4 H1_8_8_4         4   0.2357E+08   140.9       1.000      STD. DEV.      1
 
     5 W2L             -4    0.000       979.0       5.000      STD. DEV.      1
  TRANSIENT DATA AT THIS LOCATION, ITT =   1
     5 H2_8_8_1         1   0.8716E+05   152.3       1.000      STD. DEV.      1
     6 H2_8_8_2         2   0.2615E+06   152.3       1.000      STD. DEV.      1
     7 H2_8_8_3         3   0.5230E+06   152.2       1.000      STD. DEV.      1
     8 H2_8_8_4         4   0.2357E+08   140.1       1.000      STD. DEV.      1
 
     9 W2L             -4    0.000       979.0       5.000      STD. DEV.      1
  TRANSIENT DATA AT THIS LOCATION, ITT =   1
     9 H3_8_8_1         1   0.8716E+05   152.3       1.000      STD. DEV.      1
    10 H3_8_8_2         2   0.2615E+06   152.2       1.000      STD. DEV.      1
    11 H3_8_8_3         3   0.5230E+06   152.1       1.000      STD. DEV.      1
    12 H3_8_8_4         4   0.2357E+08   139.3       1.000      STD. DEV.      1
 
    13 W2L             -4    0.000       979.0       5.000      STD. DEV.      1
  TRANSIENT DATA AT THIS LOCATION, ITT =   1
    13 H1_2_2_1         1   0.8716E+05   110.0       1.000      STD. DEV.      1
    14 H1_2_2_2         2   0.2615E+06   110.1       1.000      STD. DEV.      1
    15 H1_2_2_3         3   0.5230E+06   110.3       1.000      STD. DEV.      1
    16 H1_2_2_4         4   0.2357E+08   117.7       1.000      STD. DEV.      1
 
    17 W2L             -4    0.000       979.0       5.000      STD. DEV.      1
  TRANSIENT DATA AT THIS LOCATION, ITT =   1
    17 H2_2_2_1         1   0.8716E+05   110.0       1.000      STD. DEV.      1
    18 H2_2_2_2         2   0.2615E+06   110.1       1.000      STD. DEV.      1
    19 H2_2_2_3         3   0.5230E+06   110.2       1.000      STD. DEV.      1
    20 H2_2_2_4         4   0.2357E+08   117.2       1.000      STD. DEV.      1
 
    21 W2L             -4    0.000       979.0       5.000      STD. DEV.      1
  TRANSIENT DATA AT THIS LOCATION, ITT =   1
    21 H3_2_2_1         1   0.8716E+05   110.0       1.000      STD. DEV.      1
    22 H3_2_2_2         2   0.2615E+06   110.0       1.000      STD. DEV.      1
    23 H3_2_2_3         3   0.5230E+06   110.1       1.000      STD. DEV.      1
    24 H3_2_2_4         4   0.2357E+08   116.6       1.000      STD. DEV.      1
 
    25 W2L             -4    0.000       979.0       5.000      STD. DEV.      1
  TRANSIENT DATA AT THIS LOCATION, ITT =   1
    25 H1_16_16_1       1   0.8716E+05   176.2       1.000      STD. DEV.      1
    26 H1_16_16_2       2   0.2615E+06   176.2       1.000      STD. DEV.      1
    27 H1_16_16_3       3   0.5230E+06   176.7       1.000      STD. DEV.      1
    28 H1_16_16_4       4   0.2357E+08   240.1       1.000      STD. DEV.      1
 
    29 W2L             -4    0.000       979.0       5.000      STD. DEV.      1
  TRANSIENT DATA AT THIS LOCATION, ITT =   1
    29 H2_16_16_1       1   0.8716E+05   176.1       1.000      STD. DEV.      1
    30 H2_16_16_2       2   0.2615E+06   176.2       1.000      STD. DEV.      1
    31 H2_16_16_3       3   0.5230E+06   176.7       1.000      STD. DEV.      1
    32 H2_16_16_4       4   0.2357E+08   240.2       1.000      STD. DEV.      1
 
    33 W2L             -4    0.000       979.0       5.000      STD. DEV.      1
  TRANSIENT DATA AT THIS LOCATION, ITT =   1
    33 H3_16_16_1       1   0.8716E+05   176.1       1.000      STD. DEV.      1
    34 H3_16_16_2       2   0.2615E+06   176.2       1.000      STD. DEV.      1
    35 H3_16_16_3       3   0.5230E+06   176.6       1.000      STD. DEV.      1
    36 H3_16_16_4       4   0.2357E+08   240.3       1.000      STD. DEV.      1
 
    37 W2L             -4    0.000       979.0       5.000      STD. DEV.      1
  TRANSIENT DATA AT THIS LOCATION, ITT =   1
    37 H1_16_2_1        1   0.8716E+05   110.0       1.000      STD. DEV.      1
    38 H1_16_2_2        2   0.2615E+06   110.1       1.000      STD. DEV.      1
    39 H1_16_2_3        3   0.5230E+06   110.3       1.000      STD. DEV.      1
    40 H1_16_2_4        4   0.2357E+08   117.7       1.000      STD. DEV.      1
 
    41 W2L             -4    0.000       979.0       5.000      STD. DEV.      1
  TRANSIENT DATA AT THIS LOCATION, ITT =   1
    41 H2_16_2_1        1   0.8716E+05   110.0       1.000      STD. DEV.      1
    42 H2_16_2_2        2   0.2615E+06   110.1       1.000      STD. DEV.      1
    43 H2_16_2_3        3   0.5230E+06   110.2       1.000      STD. DEV.      1
    44 H2_16_2_4        4   0.2357E+08   117.2       1.000      STD. DEV.      1
 
    45 W2L             -4    0.000       979.0       5.000      STD. DEV.      1
  TRANSIENT DATA AT THIS LOCATION, ITT =   1
    45 H3_16_2_1        1   0.8716E+05   110.0       1.000      STD. DEV.      1
    46 H3_16_2_2        2   0.2615E+06   110.0       1.000      STD. DEV.      1
    47 H3_16_2_3        3   0.5230E+06   110.1       1.000      STD. DEV.      1
    48 H3_16_2_4        4   0.2357E+08   116.6       1.000      STD. DEV.      1
 

                                                     HEAD CHANGE
                                                      REFERENCE
        OBSERVATION                   ROW     COL    OBSERVATION
  OBS#     NAME       LAY  ROW  COL  OFFSET  OFFSET   (IF > 0)
     1  H1_8_8_1        1    8    8   0.000   0.000        0
     2  H1_8_8_2        1    8    8   0.000   0.000        0
     3  H1_8_8_3        1    8    8   0.000   0.000        0
     4  H1_8_8_4        1    8    8   0.000   0.000        0
     5  H2_8_8_1        2    8    8   0.000   0.000        0
     6  H2_8_8_2        2    8    8   0.000   0.000        0
     7  H2_8_8_3        2    8    8   0.000   0.000        0
     8  H2_8_8_4        2    8    8   0.000   0.000        0
     9  H3_8_8_1        3    8    8   0.000   0.000        0
    10  H3_8_8_2        3    8    8   0.000   0.000        0
    11  H3_8_8_3        3    8    8   0.000   0.000        0
    12  H3_8_8_4        3    8    8   0.000   0.000        0
    13  H1_2_2_1        1    2    2   0.000   0.000        0
    14  H1_2_2_2        1    2    2   0.000   0.000        0
    15  H1_2_2_3        1    2    2   0.000   0.000        0
    16  H1_2_2_4        1    2    2   0.000   0.000        0
    17  H2_2_2_1        2    2    2   0.000   0.000        0
    18  H2_2_2_2        2    2    2   0.000   0.000        0
    19  H2_2_2_3        2    2    2   0.000   0.000        0
    20  H2_2_2_4        2    2    2   0.000   0.000        0
    21  H3_2_2_1        3    2    2   0.000   0.000        0
    22  H3_2_2_2        3    2    2   0.000   0.000        0
    23  H3_2_2_3        3    2    2   0.000   0.000        0
    24  H3_2_2_4        3    2    2   0.000   0.000        0
    25  H1_16_16_1      1   16   16   0.000   0.000        0
    26  H1_16_16_2      1   16   16   0.000   0.000        0
    27  H1_16_16_3      1   16   16   0.000   0.000        0
    28  H1_16_16_4      1   16   16   0.000   0.000        0
    29  H2_16_16_1      2   16   16   0.000   0.000        0
    30  H2_16_16_2      2   16   16   0.000   0.000        0
    31  H2_16_16_3      2   16   16   0.000   0.000        0
    32  H2_16_16_4      2   16   16   0.000   0.000        0
    33  H3_16_16_1      3   16   16   0.000   0.000        0
    34  H3_16_16_2      3   16   16   0.000   0.000        0
    35  H3_16_16_3      3   16   16   0.000   0.000        0
    36  H3_16_16_4      3   16   16   0.000   0.000        0
    37  H1_16_2_1       1   16    2   0.000   0.000        0
    38  H1_16_2_2       1   16    2   0.000   0.000        0
    39  H1_16_2_3       1   16    2   0.000   0.000        0
    40  H1_16_2_4       1   16    2   0.000   0.000        0
    41  H2_16_2_1       2   16    2   0.000   0.000        0
    42  H2_16_2_2       2   16    2   0.000   0.000        0
    43  H2_16_2_3       2   16    2   0.000   0.000        0
    44  H2_16_2_4       2   16    2   0.000   0.000        0
    45  H3_16_2_1       3   16    2   0.000   0.000        0
    46  H3_16_2_2       3   16    2   0.000   0.000        0
    47  H3_16_2_3       3   16    2   0.000   0.000        0
    48  H3_16_2_4       3   16    2   0.000   0.000        0

 GENERAL-HEAD-CELL FLOW OBSERVATION VARIANCES ARE MULTIPLIED BY:       1.000    

 OBSERVED GENERAL-HEAD-CELL FLOW DATA
 -- TIME OFFSETS ARE MULTIPLIED BY:   1.0000    

   GROUP NUMBER:   1   BOUNDARY TYPE: GHB   NUMBER OF CELLS IN GROUP:   -18
   NUMBER OF FLOW OBSERVATIONS:     4

                                        OBSERVED
                    REFER.            BOUNDARY FLOW
       OBSERVATION  STRESS    TIME     GAIN (-) OR              STATISTIC   PLOT
  OBS#    NAME      PERIOD   OFFSET     LOSS (+)    STATISTIC     TYPE      SYM.
    49 GHB1             1   0.8716E+05   30.60      0.5000E-01  COEF. VAR.     3
    50 GHB2             2   0.2615E+06   29.20      0.5000E-01  COEF. VAR.     3
    51 GHB3             3   0.5230E+06   26.90      0.5000E-01  COEF. VAR.     3
    52 GHB4             4   0.2357E+08   9.620      0.5000E-01  COEF. VAR.     3

       LAYER  ROW  COLUMN    FACTOR
          1.    1.    18.     1.00
          1.    2.    18.     1.00
          1.    3.    18.     1.00
          1.    4.    18.     1.00
          1.    5.    18.     1.00
          1.    6.    18.     1.00
          1.    7.    18.     1.00
          1.    8.    18.     1.00
          1.    9.    18.     1.00
          1.   10.    18.     1.00
          1.   11.    18.     1.00
          1.   12.    18.     1.00
          1.   13.    18.     1.00
          1.   14.    18.     1.00
          1.   15.    18.     1.00
          1.   16.    18.     1.00
          1.   17.    18.     1.00
          1.   18.    18.     1.00

 NQC CAN BE REDUCED FROM   72 TO   18



                                    SOLUTION BY THE CONJUGATE-GRADIENT METHOD
                                   -------------------------------------------
                    MAXIMUM NUMBER OF CALLS TO PCG ROUTINE =      500
                        MAXIMUM ITERATIONS PER CALL TO PCG =        8
                               MATRIX PRECONDITIONING TYPE =        1
        RELAXATION FACTOR (ONLY USED WITH PRECOND. TYPE 1) =    0.10000E+01
 PARAMETER OF POLYNOMIAL PRECOND. = 2 (2) OR IS CALCULATED :        2
                         HEAD CHANGE CRITERION FOR CLOSURE =    0.10000E-03
                     RESIDUAL CHANGE CRITERION FOR CLOSURE =    0.10000E-03
            PCG HEAD AND RESIDUAL CHANGE PRINTOUT INTERVAL =      999
     PRINTING FROM SOLVER IS LIMITED(1) OR SUPPRESSED (>1) =        2
                                         DAMPING PARAMETER =    0.10000E+01

 CONVERGENCE CRITERIA FOR SENSITIVITIES
 PARAMETER      HCLOSE        RCLOSE
 ----------  ------------  ------------
 HK1          0.14286E-01   0.14286E-01
 HK3          0.25000E-01   0.25000E-01
 HK4          0.15873E-01   0.15873E-01
 SS1          0.71429E-03   0.71429E-03
 SS3          0.76923E-03   0.76923E-03
 SS4          0.83333E-03   0.83333E-03
 SY1          0.12500E-04   0.12500E-04
 --------------------------------------

 WETTING CAPABILITY IS NOT ACTIVE IN ANY LAYER


 HUF1 -- HYDROGEOLOGIC-UNIT FLOW PACKAGE
 ---------------------------------------------------------------------------

  TOP ELEVATN: HGU1       =   150.000    

    THICKNESS: HGU1       =   50.0000    

  TOP ELEVATN: HGU2       =   100.000    

    THICKNESS: HGU2       =   10.0000    

  TOP ELEVATN: HGU3       =   90.0000    



              THICKNESS: HGU3      
 READING ON UNIT   7 WITH FORMAT: (15F5.0)            



            TOP ELEVATN: HGU4      
 READING ON UNIT   7 WITH FORMAT: (15F5.0)            



              THICKNESS: HGU4      
 READING ON UNIT   7 WITH FORMAT: (15F5.0)            


   INTERPRETATION OF UNIT FLAGS:
     UNIT      HANI           VK/VANI
 ---------------------------------------------------------------------------
 HGU1        1.000000        VERTICAL K
 HGU2        1.000000        VERTICAL K
 HGU3        1.000000        VERTICAL K
 HGU4        1.000000        VERTICAL K

 PARAMETER NAME:HK1          TYPE:HK   UNITS:   1
 The parameter value from the package file is:  3.00000E-04
 This parameter value has been replaced by the value from the
 Sensitivity Process file:  7.00000E-05
UNIT HGU1      CORRESPONDS TO UNIT NO.     1
                LAYER:  1   MULTIPLIER:NONE   ZONE:ALL

 PARAMETER NAME:HK2          TYPE:HK   UNITS:   1
 The parameter value from the package file is:  2.00000E-07
UNIT HGU2      CORRESPONDS TO UNIT NO.     2
                LAYER:  2   MULTIPLIER:NONE   ZONE:ALL

 PARAMETER NAME:HK3          TYPE:HK   UNITS:   1
 The parameter value from the package file is:  4.00000E-05
UNIT HGU3      CORRESPONDS TO UNIT NO.     3
                LAYER:  3   MULTIPLIER:TMULT   ZONE:ALL

 PARAMETER NAME:HK4          TYPE:HK   UNITS:   1
 The parameter value from the package file is:  4.00000E-05
 This parameter value has been replaced by the value from the
 Sensitivity Process file:  6.30000E-05
UNIT HGU4      CORRESPONDS TO UNIT NO.     4
                LAYER:  4   MULTIPLIER:TMULT   ZONE:ALL

 PARAMETER NAME:VKA1         TYPE:VK   UNITS:   1
 The parameter value from the package file is:  3.00000E-04
UNIT HGU1      CORRESPONDS TO UNIT NO.     1
                LAYER:  1   MULTIPLIER:NONE   ZONE:ALL

 PARAMETER NAME:VKA2         TYPE:VK   UNITS:   1
 The parameter value from the package file is:  2.00000E-07
UNIT HGU2      CORRESPONDS TO UNIT NO.     2
                LAYER:  2   MULTIPLIER:NONE   ZONE:ALL

 PARAMETER NAME:VKA3         TYPE:VK   UNITS:   1
 The parameter value from the package file is:  4.00000E-05
UNIT HGU3      CORRESPONDS TO UNIT NO.     3
                LAYER:  3   MULTIPLIER:TMULT   ZONE:ALL

 PARAMETER NAME:VKA4         TYPE:VK   UNITS:   1
 The parameter value from the package file is:  4.00000E-05
UNIT HGU4      CORRESPONDS TO UNIT NO.     4
                LAYER:  4   MULTIPLIER:TMULT   ZONE:ALL

 PARAMETER NAME:SS1          TYPE:SS   UNITS:   1
 The parameter value from the package file is:  1.00000E-03
 This parameter value has been replaced by the value from the
 Sensitivity Process file:  1.40000E-03
UNIT HGU1      CORRESPONDS TO UNIT NO.     1
                LAYER:  1   MULTIPLIER:NONE   ZONE:ALL

 PARAMETER NAME:SS2          TYPE:SS   UNITS:   1
 The parameter value from the package file is:  1.00000E-06
UNIT HGU2      CORRESPONDS TO UNIT NO.     2
                LAYER:  2   MULTIPLIER:NONE   ZONE:ALL

 PARAMETER NAME:SS3          TYPE:SS   UNITS:   1
 The parameter value from the package file is:  1.00000E-03
 This parameter value has been replaced by the value from the
 Sensitivity Process file:  1.30000E-03
UNIT HGU3      CORRESPONDS TO UNIT NO.     3
                LAYER:  3   MULTIPLIER:NONE   ZONE:ALL

 PARAMETER NAME:SS4          TYPE:SS   UNITS:   1
 The parameter value from the package file is:  1.00000E-03
 This parameter value has been replaced by the value from the
 Sensitivity Process file:  1.20000E-03
UNIT HGU4      CORRESPONDS TO UNIT NO.     4
                LAYER:  4   MULTIPLIER:NONE   ZONE:ALL

 PARAMETER NAME:SY1          TYPE:SY   UNITS:   1
 The parameter value from the package file is:  0.10000    
 This parameter value has been replaced by the value from the
 Sensitivity Process file:  8.00000E-02
UNIT HGU1      CORRESPONDS TO UNIT NO.     1
                LAYER:  1   MULTIPLIER:NONE   ZONE:ALL

 PARAMETER NAME:SY2          TYPE:SY   UNITS:   1
 The parameter value from the package file is:  1.00000E-02
UNIT HGU2      CORRESPONDS TO UNIT NO.     2
                LAYER:  2   MULTIPLIER:NONE   ZONE:ALL

 PARAMETER NAME:SY3          TYPE:SY   UNITS:   1
 The parameter value from the package file is:  0.10000    
UNIT HGU3      CORRESPONDS TO UNIT NO.     3
                LAYER:  3   MULTIPLIER:NONE   ZONE:ALL

 PARAMETER NAME:SY4          TYPE:SY   UNITS:   1
 The parameter value from the package file is:  0.10000    
UNIT HGU4      CORRESPONDS TO UNIT NO.     4
                LAYER:  4   MULTIPLIER:NONE   ZONE:ALL
 ITRSS 1

Reading PRINTCODE information
UNIT HGU3      CORRESPONDS TO UNIT NO.     3


PRINTCODE FLAGS ARE SET AS FOLLOWS
   UNIT       HK   HANI   VK    SS    SY
------------------------------------------
HGU1           0     0     0     0     0
HGU2           0     0     0     0     0
HGU3          20    20    20    20    20
HGU4           0     0     0     0     0


     0 Well parameters


     0 River parameters


     0 GHB parameters


     2 Recharge parameters

 PARAMETER NAME:RCH1         TYPE:RCH    CLUSTERS:   1