                                  MODFLOW-2000
      U.S. GEOLOGICAL SURVEY MODULAR FINITE-DIFFERENCE GROUND-WATER FLOW MODEL
                             VERSION 1.10 07/26/2002


 This model run produced both GLOBAL and LIST files.  This is the GLOBAL file.

 GLOBAL LISTING FILE: tc2.glo
                         UNIT   11

 OPENING tc2.lst
 FILE TYPE:LIST   UNIT   12   STATUS:REPLACE
 FORMAT:FORMATTED              ACCESS:SEQUENTIAL          

 OPENING tc2.bin
 FILE TYPE:DATA(BINARY)   UNIT   13   STATUS:UNKNOWN
 FORMAT:UNFORMATTED            ACCESS:TRANSPARENT         
#                                                                                                                                                                                                       
# Obs-Sen-Pes process input files                                                                                                                                                                       

 OPENING ../data/tc2.obs
 FILE TYPE:OBS   UNIT   21   STATUS:OLD    
 FORMAT:FORMATTED              ACCESS:SEQUENTIAL          

 OPENING ../data/tc2.ohd
 FILE TYPE:HOB   UNIT   22   STATUS:OLD    
 FORMAT:FORMATTED              ACCESS:SEQUENTIAL          

 OPENING ../data/tc2.odr
 FILE TYPE:DROB   UNIT   23   STATUS:OLD    
 FORMAT:FORMATTED              ACCESS:SEQUENTIAL          

 OPENING ../data/tc2.ogb
 FILE TYPE:GBOB   UNIT   24   STATUS:OLD    
 FORMAT:FORMATTED              ACCESS:SEQUENTIAL          

 OPENING ../data/tc2.sen
 FILE TYPE:SEN   UNIT   25   STATUS:OLD    
 FORMAT:FORMATTED              ACCESS:SEQUENTIAL          

 OPENING ../data/tc2.pes
 FILE TYPE:PES   UNIT   26   STATUS:OLD    
 FORMAT:FORMATTED              ACCESS:SEQUENTIAL          
#adv             27   ../data/tc2.adv                                                                                                                                                                   
#                                                                                                                                                                                                       
# Global input files                                                                                                                                                                                    

 OPENING ../data/tc2.dis
 FILE TYPE:DIS   UNIT   31   STATUS:OLD    
 FORMAT:FORMATTED              ACCESS:SEQUENTIAL          

 OPENING ../data/tc2.zon
 FILE TYPE:ZONE   UNIT   32   STATUS:OLD    
 FORMAT:FORMATTED              ACCESS:SEQUENTIAL          
#                                                                                                                                                                                                       
# Flow process input files                                                                                                                                                                              

 OPENING ../data/tc2.bas
 FILE TYPE:BAS6   UNIT   41   STATUS:OLD    
 FORMAT:FORMATTED              ACCESS:SEQUENTIAL          

 OPENING ../data/tc2.lpf
 FILE TYPE:LPF   UNIT   42   STATUS:OLD    
 FORMAT:FORMATTED              ACCESS:SEQUENTIAL          

 OPENING ../data/tc2.wel
 FILE TYPE:WEL   UNIT   43   STATUS:OLD    
 FORMAT:FORMATTED              ACCESS:SEQUENTIAL          

 OPENING ../data/tc2.drn
 FILE TYPE:DRN   UNIT   44   STATUS:OLD    
 FORMAT:FORMATTED              ACCESS:SEQUENTIAL          

 OPENING ../data/tc2.evt
 FILE TYPE:EVT   UNIT   45   STATUS:OLD    
 FORMAT:FORMATTED              ACCESS:SEQUENTIAL          

 OPENING ../data/tc2.ghb
 FILE TYPE:GHB   UNIT   46   STATUS:OLD    
 FORMAT:FORMATTED              ACCESS:SEQUENTIAL          

 OPENING ../data/tc2.rch
 FILE TYPE:RCH   UNIT   47   STATUS:OLD    
 FORMAT:FORMATTED              ACCESS:SEQUENTIAL          

 OPENING ../data/tc2.oc
 FILE TYPE:OC   UNIT   48   STATUS:OLD    
 FORMAT:FORMATTED              ACCESS:SEQUENTIAL          

 OPENING ../data/tc2.pcg
 FILE TYPE:PCG   UNIT   49   STATUS:OLD    
 FORMAT:FORMATTED              ACCESS:SEQUENTIAL          

 THE FREE FORMAT OPTION HAS BEEN SELECTED

 DISCRETIZATION INPUT DATA READ FROM UNIT   31
 # DIS file for test case ymptc
 #
    3 LAYERS        18 ROWS        18 COLUMNS
    1 STRESS PERIOD(S) IN SIMULATION
 MODEL TIME UNIT IS DAYS
 MODEL LENGTH UNIT IS METERS
 THE GROUND-WATER TRANSPORT PROCESS IS INACTIVE

 THE OBSERVATION PROCESS IS ACTIVE
 THE SENSITIVITY PROCESS IS ACTIVE
 THE PARAMETER-ESTIMATION PROCESS IS ACTIVE

 MODE: PARAMETER ESTIMATION


 ZONE OPTION, INPUT READ FROM UNIT   32
 # ZONE file for test case tc2
 #
     4 ZONE ARRAYS
  Confining bed flag for each layer:
   0   0   0

       8784  ELEMENTS OF GX ARRAY USED OUT OF       8784
        972  ELEMENTS OF GZ ARRAY USED OUT OF        972
       2268  ELEMENTS OF IG ARRAY USED OUT OF       2268

                     DELR =   1500.00    

                     DELC =   1500.00    



           TOP ELEVATION OF LAYER 1
 READING ON UNIT   31 WITH FORMAT: (18F10.2)           

             1            2            3            4            5
             6            7            8            9           10
            11           12           13           14           15
            16           17           18
 .................................................................
   1    0.0000       466.66       970.89       979.17       979.48    
        980.07       1025.0       1123.7       1184.3       1185.8    
        1186.5       9999.0       9999.0       9999.0       9999.0    
        9999.0       9999.0       9999.0    
   2    0.0000       460.53       968.83       979.02       979.21    
        979.77       1015.1       1103.0       1170.6       1186.5    
        1187.3       1188.7       9999.0       9999.0       9999.0    
        9999.0       9999.0       9999.0    
   3    0.0000       432.95       961.24       973.60       978.55    
        957.74       987.47       1088.8       1179.7       1186.8    
        1187.4       1190.1       1191.8       9999.0       9999.0    
        9999.0       9999.0       9999.0    
   4    0.0000       291.69       752.49       967.22       971.47    
        964.35       990.43       1082.6       1176.5       1177.2    
        1159.7       1192.4       1193.5       1194.9       9999.0    
        9999.0       9999.0       9999.0    
   5    0.0000       220.86       552.04       799.15       897.53    
        929.42       956.07       983.73       1077.6       1147.7    
        1154.3       1194.2       1195.1       1196.3       1197.3    
        9999.0       9999.0       9999.0    
   6    0.0000       188.80       463.00       692.59       852.09    
        892.57       932.76       906.94       1007.6       1147.7    
        1201.2       1195.8       1196.4       1197.9       1198.3    
        1198.3       9999.0       9999.0    
   7    27.650       189.71       420.51       653.17       857.06    
        922.11       1014.7       951.16       1023.8       1184.0    
        1259.7       1242.4       1215.4       1200.6       1200.0    
        1198.8       1197.3       9999.0    
   8    50.330       209.99       431.34       642.47       850.77    
        944.38       1014.5       953.31       1036.8       1233.1    
        1337.1       1346.4       1256.8       1205.1       1203.7    
        1200.9       1197.3       1100.0    
   9    67.180       233.93       444.97       634.74       835.28    
        925.80       971.05       931.50       1049.6       1275.6    
        1407.2       1449.9       1356.6       1209.9       1209.1    
        1204.7       1176.9       1100.0    
  10    77.440       262.59       462.38       635.42       812.44    
        951.31       990.28       999.73       1107.8       1286.3    
        1395.3       1453.3       1424.8       1276.8       1214.3    
        1202.2       1159.1       1100.0    
  11    207.65       336.39       484.48       640.95       809.63    
        926.59       996.19       1045.8       1129.6       1312.3    
        1441.1       1457.0       1448.0       1315.5       1217.3    
        1204.8       1157.2       1100.0    
  12    9999.0       9999.0       9999.0       9999.0       871.62    
        949.88       1018.2       1062.9       1036.7       1312.1    
        1459.7       1459.8       1479.2       1376.0       1284.8    
        1218.5       1164.7       1100.0    
  13    9999.0       9999.0       9999.0       9999.0       9999.0    
        1000.4       1063.1       1123.8       1185.0       1336.6    
        1483.0       1513.5       1515.4       1419.2       1314.9    
        1228.8       1182.0       1153.7    
  14    9999.0       9999.0       9999.0       9999.0       9999.0    
        9999.0       1117.5       1183.2       1225.0       1283.5    
        1375.4       1405.0       1388.1       1333.3       1276.1    
        1215.9       1193.0       1177.7    
  15    9999.0       9999.0       9999.0       9999.0       9999.0    
        9999.0       9999.0       1239.2       1241.1       1242.5    
        1282.9       1303.6       1286.9       1219.0       1240.7    
        1206.7       1193.3       1188.8    
  16    9999.0       9999.0       9999.0       9999.0       9999.0    
        9999.0       9999.0       9999.0       1241.6       1242.1    
        1255.6       1262.5       1249.1       1206.2       1216.2    
        1197.5       1193.3       1192.3    
  17    9999.0       9999.0       9999.0       9999.0       9999.0    
        9999.0       9999.0       9999.0       9999.0       1242.2    
        1246.7       1247.3       1238.5       1221.5       1209.4    
        1195.8       1194.2       1193.7    
  18    9999.0       9999.0       9999.0       9999.0       9999.0    
        9999.0       9999.0       9999.0       9999.0       9999.0    
        1244.5       1242.2       1234.8       1222.8       1208.1    
        1195.4       1194.6       1194.1    



             MODEL LAYER BOTTOM EL. FOR LAYER   1
 READING ON UNIT   31 WITH FORMAT: (18F10.2)           

             1            2            3            4            5
             6            7            8            9           10
            11           12           13           14           15
            16           17           18
 .................................................................
   1   -500.00      -33.340       470.89       479.17       479.48    
        480.07       525.00       623.69       684.28       685.76    
        686.51       9999.0       9999.0       9999.0       9999.0    
        9999.0       9999.0       9999.0    
   2   -500.00      -39.470       468.83       479.02       479.21    
        479.77       515.11       603.04       670.61       686.49    
        687.26       688.65       9999.0       9999.0       9999.0    
        9999.0       9999.0       9999.0    
   3   -500.00      -67.050       461.24       473.60       478.55    
        457.74       487.47       588.84       679.69       686.78    
        687.39       690.05       691.79       9999.0       9999.0    
        9999.0       9999.0       9999.0    
   4   -500.00      -208.31       252.49       467.22       471.47    
        464.35       490.43       582.56       676.54       677.24    
        659.66       692.36       693.54       694.92       9999.0    
        9999.0       9999.0       9999.0    
   5   -500.00      -279.14       52.040       299.15       397.53    
        429.42       456.07       483.73       577.55       647.71    
        654.33       694.15       695.09       696.29       697.29    
        9999.0       9999.0       9999.0    
   6   -500.00      -311.20      -37.000       192.59       352.09    
        392.57       432.76       406.94       507.63       647.73    
        701.15       695.77       696.37       697.88       698.28    
        698.34       9999.0       9999.0    
   7   -472.35      -310.29      -79.490       153.17       357.06    
        422.11       514.73       451.16       523.76       683.96    
        759.68       742.39       715.40       700.60       700.03    
        698.83       697.33       9999.0    
   8   -449.67      -290.01      -68.660       142.47       350.77    
        444.38       514.46       453.31       536.80       733.05    
        837.05       846.38       756.78       705.05       703.72    
        700.92       697.30       600.00    
   9   -432.82      -266.07      -55.030       134.74       335.28    
        425.80       471.05       431.50       549.61       775.58    
        907.16       949.87       856.59       709.95       709.11    
        704.70       676.94       600.00    
  10   -422.56      -237.41      -37.620       135.42       312.44    
        451.31       490.28       499.73       607.81       786.30    
        895.35       953.25       924.78       776.80       714.27    
        702.18       659.09       600.00    
  11   -292.35      -163.61      -15.520       140.95       309.63    
        426.59       496.19       545.80       629.56       812.27    
        941.08       956.96       947.99       815.52       717.30    
        704.81       657.15       600.00    
  12    9999.0       9999.0       9999.0       9999.0       371.62    
        449.88       518.16       562.88       536.73       812.10    
        959.70       959.79       979.20       875.99       784.80    
        718.50       664.71       600.00    
  13    9999.0       9999.0       9999.0       9999.0       9999.0    
        500.38       563.05       623.83       684.97       836.58    
        982.97       1013.5       1015.4       919.18       814.91    
        728.81       681.96       653.66    
  14    9999.0       9999.0       9999.0       9999.0       9999.0    
        9999.0       617.51       683.17       725.02       783.48    
        875.39       904.99       888.08       833.35       776.05    
        715.86       693.01       677.67    
  15    9999.0       9999.0       9999.0       9999.0       9999.0    
        9999.0       9999.0       739.21       741.07       742.52    
        782.86       803.60       786.91       719.00       740.73    
        706.68       693.28       688.76    
  16    9999.0       9999.0       9999.0       9999.0       9999.0    
        9999.0       9999.0       9999.0       741.55       742.06    
        755.55       762.52       749.10       706.20       716.15    
        697.47       693.35       692.28    
  17    9999.0       9999.0       9999.0       9999.0       9999.0    
        9999.0       9999.0       9999.0       9999.0       742.22    
        746.68       747.25       738.52       721.48       709.43    
        695.85       694.18       693.66    
  18    9999.0       9999.0       9999.0       9999.0       9999.0    
        9999.0       9999.0       9999.0       9999.0       9999.0    
        744.51       742.16       734.80       722.75       708.12    
        695.45       694.60       694.10    



             MODEL LAYER BOTTOM EL. FOR LAYER   2
 READING ON UNIT   31 WITH FORMAT: (18F10.2)           

             1            2            3            4            5
             6            7            8            9           10
            11           12           13           14           15
            16           17           18
 .................................................................
   1   -1250.0      -783.34      -279.11      -270.83      -270.52    
       -269.93      -225.00      -126.31      -65.720      -64.240    
       -63.490       9999.0       9999.0       9999.0       9999.0    
        9999.0       9999.0       9999.0    
   2   -1250.0      -789.47      -281.17      -270.98      -270.79    
       -270.23      -234.89      -146.96      -79.390      -63.510    
       -62.740      -61.350       9999.0       9999.0       9999.0    
        9999.0       9999.0       9999.0    
   3   -1250.0      -817.05      -288.76      -276.40      -271.45    
       -292.26      -262.53      -161.16      -70.310      -63.220    
       -62.610      -59.950      -58.210       9999.0       9999.0    
        9999.0       9999.0       9999.0    
   4   -1250.0      -958.31      -497.51      -282.78      -278.53    
       -285.65      -259.57      -167.44      -73.460      -72.760    
       -90.340      -57.640      -56.460      -55.080       9999.0    
        9999.0       9999.0       9999.0    
   5   -1250.0      -1029.1      -697.96      -450.85      -352.47    
       -320.58      -293.93      -266.27      -172.45      -102.29    
       -95.670      -55.850      -54.910      -53.710      -52.710    
        9999.0       9999.0       9999.0    
   6   -1250.0      -1061.2      -787.00      -557.41      -397.91    
       -357.43      -317.24      -343.06      -242.37      -102.27    
       -48.850      -54.230      -53.630      -52.120      -51.720    
       -51.660       9999.0       9999.0    
   7   -1222.3      -1060.3      -829.49      -596.83      -392.94    
       -327.89      -235.27      -298.84      -226.24      -66.040    
        9.6800      -7.6100      -34.600      -49.400      -49.970    
       -51.170      -52.670       9999.0    
   8   -1199.7      -1040.0      -818.66      -607.53      -399.23    
       -305.62      -235.54      -296.69      -213.20      -16.950    
        87.050       96.380       6.7800      -44.950      -46.280    
       -49.080      -52.700      -150.00    
   9   -1182.8      -1016.1      -805.03      -615.26      -414.72    
       -324.20      -278.95      -318.50      -200.39       25.580    
        157.16       199.87       106.59      -40.050      -40.890    
       -45.300      -73.060      -150.00    
  10   -1172.6      -987.41      -787.62      -614.58      -437.56    
       -298.69      -259.72      -250.27      -142.19       36.300    
        145.35       203.25       174.78       26.800      -35.730    
       -47.820      -90.910      -150.00    
  11   -1042.3      -913.61      -765.52      -609.05      -440.37    
       -323.41      -253.81      -204.20      -120.44       62.270    
        191.08       206.96       197.99       65.520      -32.700    
       -45.190      -92.850      -150.00    
  12    9999.0       9999.0       9999.0       9999.0      -378.38    
       -300.12      -231.84      -187.12      -213.27       62.100    
        209.70       209.79       229.20       125.99       34.800    
       -31.500      -85.290      -150.00    
  13    9999.0       9999.0       9999.0       9999.0       9999.0    
       -249.62      -186.95      -126.17      -65.030       86.580    
        232.97       263.53       265.39       169.18       64.910    
       -21.190      -68.040      -96.340    
  14    9999.0       9999.0       9999.0       9999.0       9999.0    
        9999.0      -132.49      -66.830      -24.980       33.480    
        125.39       154.99       138.08       83.350       26.050    
       -34.140      -56.990      -72.330    
  15    9999.0       9999.0       9999.0       9999.0       9999.0    
        9999.0       9999.0      -10.790      -8.9300      -7.4800    
        32.860       53.600       36.910      -31.000      -9.2700    
       -43.320      -56.720      -61.240    
  16    9999.0       9999.0       9999.0       9999.0       9999.0    
        9999.0       9999.0       9999.0      -8.4500      -7.9400    
        5.5500       12.520     -0.90000      -43.800      -33.850    
       -52.530      -56.650      -57.720    
  17    9999.0       9999.0       9999.0       9999.0       9999.0    
        9999.0       9999.0       9999.0       9999.0      -7.7800    
       -3.3200      -2.7500      -11.480      -28.520      -40.570    
       -54.150      -55.820      -56.340    
  18    9999.0       9999.0       9999.0       9999.0       9999.0    
        9999.0       9999.0       9999.0       9999.0       9999.0    
       -5.4900      -7.8400      -15.200      -27.250      -41.880    
       -54.550      -55.400      -55.900    



             MODEL LAYER BOTTOM EL. FOR LAYER   3
 READING ON UNIT   31 WITH FORMAT: (18F10.2)           

             1            2            3            4            5
             6            7            8            9           10
            11           12           13           14           15
            16           17           18
 .................................................................
   1   -2750.0      -2283.3      -1779.1      -1770.8      -1770.5    
       -1769.9      -1725.0      -1626.3      -1565.7      -1564.2    
       -1563.5       9999.0       9999.0       9999.0       9999.0    
        9999.0       9999.0       9999.0    
   2   -2750.0      -2289.5      -1781.2      -1771.0      -1770.8    
       -1770.2      -1734.9      -1647.0      -1579.4      -1563.5    
       -1562.7      -1561.3       9999.0       9999.0       9999.0    
        9999.0       9999.0       9999.0    
   3   -2750.0      -2317.1      -1788.8      -1776.4      -1771.4    
       -1792.3      -1762.5      -1661.2      -1570.3      -1563.2    
       -1562.6      -1559.9      -1558.2       9999.0       9999.0    
        9999.0       9999.0       9999.0    
   4   -2750.0      -2458.3      -1997.5      -1782.8      -1778.5    
       -1785.7      -1759.6      -1667.4      -1573.5      -1572.8    
       -1590.3      -1557.6      -1556.5      -1555.1       9999.0    
        9999.0       9999.0       9999.0    
   5   -2750.0      -2529.1      -2198.0      -1950.8      -1852.5    
       -1820.6      -1793.9      -1766.3      -1672.4      -1602.3    
       -1595.7      -1555.8      -1554.9      -1553.7      -1552.7    
        9999.0       9999.0       9999.0    
   6   -2750.0      -2561.2      -2287.0      -2057.4      -1897.9    
       -1857.4      -1817.2      -1843.1      -1742.4      -1602.3    
       -1548.8      -1554.2      -1553.6      -1552.1      -1551.7    
       -1551.7       9999.0       9999.0    
   7   -2722.4      -2560.3      -2329.5      -2096.8      -1892.9    
       -1827.9      -1735.3      -1798.8      -1726.2      -1566.0    
       -1490.3      -1507.6      -1534.6      -1549.4      -1550.0    
       -1551.2      -1552.7       9999.0    
   8   -2699.7      -2540.0      -2318.7      -2107.5      -1899.2    
       -1805.6      -1735.5      -1796.7      -1713.2      -1516.9    
       -1412.9      -1403.6      -1493.2      -1544.9      -1546.3    
       -1549.1      -1552.7      -1650.0    
   9   -2682.8      -2516.1      -2305.0      -2115.3      -1914.7    
       -1824.2      -1778.9      -1818.5      -1700.4      -1474.4    
       -1342.8      -1300.1      -1393.4      -1540.1      -1540.9    
       -1545.3      -1573.1      -1650.0    
  10   -2672.6      -2487.4      -2287.6      -2114.6      -1937.6    
       -1798.7      -1759.7      -1750.3      -1642.2      -1463.7    
       -1354.7      -1296.8      -1325.2      -1473.2      -1535.7    
       -1547.8      -1590.9      -1650.0    
  11   -2542.4      -2413.6      -2265.5      -2109.1      -1940.4    
       -1823.4      -1753.8      -1704.2      -1620.4      -1437.7    
       -1308.9      -1293.0      -1302.0      -1434.5      -1532.7    
       -1545.2      -1592.8      -1650.0    
  12    9999.0       9999.0       9999.0       9999.0      -1878.4    
       -1800.1      -1731.8      -1687.1      -1713.3      -1437.9    
       -1290.3      -1290.2      -1270.8      -1374.0      -1465.2    
       -1531.5      -1585.3      -1650.0    
  13    9999.0       9999.0       9999.0       9999.0       9999.0    
       -1749.6      -1686.9      -1626.2      -1565.0      -1413.4    
       -1267.0      -1236.5      -1234.6      -1330.8      -1435.1    
       -1521.2      -1568.0      -1596.3    
  14    9999.0       9999.0       9999.0       9999.0       9999.0    
        9999.0      -1632.5      -1566.8      -1525.0      -1466.5    
       -1374.6      -1345.0      -1361.9      -1416.7      -1473.9    
       -1534.1      -1557.0      -1572.3    
  15    9999.0       9999.0       9999.0       9999.0       9999.0    
        9999.0       9999.0      -1510.8      -1508.9      -1507.5    
       -1467.1      -1446.4      -1463.1      -1531.0      -1509.3    
       -1543.3      -1556.7      -1561.2    
  16    9999.0       9999.0       9999.0       9999.0       9999.0    
        9999.0       9999.0       9999.0      -1508.4      -1507.9    
       -1494.4      -1487.5      -1500.9      -1543.8      -1533.8    
       -1552.5      -1556.7      -1557.7    
  17    9999.0       9999.0       9999.0       9999.0       9999.0    
        9999.0       9999.0       9999.0       9999.0      -1507.8    
       -1503.3      -1502.8      -1511.5      -1528.5      -1540.6    
       -1554.2      -1555.8      -1556.3    
  18    9999.0       9999.0       9999.0       9999.0       9999.0    
        9999.0       9999.0       9999.0       9999.0       9999.0    
       -1505.5      -1507.8      -1515.2      -1527.3      -1541.9    
       -1554.6      -1555.4      -1555.9    


 STRESS PERIOD     LENGTH       TIME STEPS     MULTIPLIER FOR DELT    SS FLAG
 ----------------------------------------------------------------------------
        1         86400.00          1                    1.000         SS

 STEADY-STATE SIMULATION






             ZONE ARRAY: ZLAY1     
 READING ON UNIT   32 WITH FORMAT: (I1,17I2)           

       1  2  3  4  5  6  7  8  9 10 11 12 13 14 15 16 17 18
 ..........................................................
   1   2  3  2  1  1  1  2  2  1  1  1  0  0  0  0  0  0  0
   2   2  3  2  1  1  1  2  2  2  1  1  1  0  0  0  0  0  0
   3   2  3  2  2  1  2  2  3  2  1  1  1  1  0  0  0  0  0
   4   2  3  3  2  2  2  3  3  2  2  2  1  1  1  0  0  0  0
   5   2  3  3  3  3  3  3  3  3  3  2  1  1  1  1  0  0  0
   6   2  3  3  3  3  2  2  2  3  3  2  1  1  1  1  1  0  0
   7   2  3  3  3  3  2  1  2  3  3  2  2  2  1  1  1  1  0
   8   2  3  3  3  3  2  1  2  3  3  2  2  2  1  1  1  1  2
   9   2  3  3  3  3  2  2  2  3  3  2  1  2  1  1  1  2  2
  10   2  3  3  3  3  3  3  3  3  3  2  1  2  2  1  2  2  2
  11   3  3  3  3  3  3  3  3  3  3  2  1  2  2  1  2  2  2
  12   0  0  0  0  3  3  3  3  3  3  2  1  2  2  2  2  2  2
  13   0  0  0  0  0  3  3  3  3  3  2  2  2  2  2  2  2  1
  14   0  0  0  0  0  0  3  3  3  3  3  3  3  2  2  2  1  2
  15   0  0  0  0  0  0  0  2  2  2  3  3  3  3  2  2  1  2
  16   0  0  0  0  0  0  0  0  1  2  3  3  3  3  3  2  1  2
  17   0  0  0  0  0  0  0  0  0  2  3  3  3  3  3  2  2  2
  18   0  0  0  0  0  0  0  0  0  0  3  3  3  3  3  2  2  2



             ZONE ARRAY: ZLAY2     
 READING ON UNIT   32 WITH FORMAT: (I1,17I2)           

       1  2  3  4  5  6  7  8  9 10 11 12 13 14 15 16 17 18
 ..........................................................
   1   3  3  3  3  3  3  3  3  3  3  3  0  0  0  0  0  0  0
   2   3  3  3  3  3  3  3  4  4  4  3  3  0  0  0  0  0  0
   3   3  3  3  3  3  3  3  4  4  4  3  3  3  0  0  0  0  0
   4   3  3  3  3  3  3  4  4  4  4  4  4  3  3  0  0  0  0
   5   3  3  3  3  3  3  3  3  3  4  4  4  3  3  3  0  0  0
   6   3  3  3  3  3  2  2  2  3  4  4  4  3  3  2  2  0  0
   7   3  3  3  4  3  2  1  2  3  4  4  3  3  2  2  2  2  0
   8   3  3  3  3  3  2  1  2  3  4  4  3  2  2  2  2  2  3
   9   3  3  3  3  3  2  1  2  3  4  4  3  3  2  1  2  3  3
  10   3  3  3  3  3  2  2  2  3  3  3  3  3  2  1  2  3  3
  11   3  3  3  3  3  3  3  3  3  3  3  3  3  2  1  2  3  2
  12   0  0  0  0  3  3  3  3  3  3  3  3  3  2  2  2  2  2
  13   0  0  0  0  0  3  3  3  3  3  3  3  3  3  2  2  2  2
  14   0  0  0  0  0  0  3  3  3  3  3  3  3  3  3  2  1  2
  15   0  0  0  0  0  0  0  3  3  3  3  3  3  3  3  2  2  2
  16   0  0  0  0  0  0  0  0  3  3  3  3  3  3  3  3  3  3
  17   0  0  0  0  0  0  0  0  0  3  3  3  3  3  3  3  3  2
  18   0  0  0  0  0  0  0  0  0  0  3  3  3  3  3  3  3  2



             ZONE ARRAY: ZLAY3     
 READING ON UNIT   32 WITH FORMAT: (I1,17I2)           

       1  2  3  4  5  6  7  8  9 10 11 12 13 14 15 16 17 18
 ..........................................................
   1   3  4  4  3  3  3  3  3  3  3  3  0  0  0  0  0  0  0
   2   3  4  4  4  3  3  3  4  4  4  3  3  0  0  0  0  0  0
   3   3  4  4  4  4  3  4  4  4  4  4  3  3  0  0  0  0  0
   4   3  4  4  4  4  4  4  4  4  4  4  4  3  3  0  0  0  0
   5   3  4  4  4  4  4  4  4  4  4  4  4  4  3  3  0  0  0
   6   3  4  4  4  4  4  4  4  4  4  4  4  4  4  4  4  0  0
   7   3  4  4  4  4  4  1  1  1  1  1  1  1  1  1  1  1  0
   8   3  3  4  4  4  4  1  3  3  3  4  4  4  4  4  4  1  1
   9   3  3  3  3  4  4  4  4  4  3  3  3  3  3  3  3  3  3
  10   3  3  3  3  3  4  4  4  4  4  4  4  3  3  3  3  3  3
  11   3  3  3  3  3  3  4  4  4  3  3  3  3  3  3  3  3  3
  12   0  0  0  0  3  3  4  4  4  4  3  3  3  3  3  4  3  3
  13   0  0  0  0  0  3  3  4  4  4  4  4  4  4  4  4  4  4
  14   0  0  0  0  0  0  3  3  4  4  4  4  4  4  4  4  4  4
  15   0  0  0  0  0  0  0  3  3  3  3  3  3  3  3  3  3  3
  16   0  0  0  0  0  0  0  0  3  3  3  3  3  3  3  3  3  3
  17   0  0  0  0  0  0  0  0  0  3  3  3  3  3  3  3  3  3
  18   0  0  0  0  0  0  0  0  0  0  3  3  3  3  3  3  3  3



             ZONE ARRAY: RCHETM    
 READING ON UNIT   32 WITH FORMAT: (I1,17I2)           

       1  2  3  4  5  6  7  8  9 10 11 12 13 14 15 16 17 18
 ..........................................................
   1   0  0  0  0  0  0  0  0  0  0  0  0  0  0  0  0  0  0
   2   0  0  0  0  0  0  0  0  0  0  0  0  0  0  0  0  0  0
   3   0  0  0  0  0  0  0  0  0  0  0  0  0  0  0  0  0  0
   4   0  0  0  0  0  0  0  0  0  0  0  0  0  0  0  0  0  0
   5   0  0  0  0  0  0  0  0  0  0  0  0  0  0  0  0  0  0