                                  MODFLOW-2000
      U.S. GEOLOGICAL SURVEY MODULAR FINITE-DIFFERENCE GROUND-WATER FLOW MODEL
                           VERSION 1.16.00 03/28/2006


 This model run produced both GLOBAL and LIST files.  This is the GLOBAL file.

 GLOBAL LISTING FILE: tc2hufv4.glo
                         UNIT    1

 OPENING tc2hufv4.lst
 FILE TYPE:LIST   UNIT    2   STATUS:REPLACE
 FORMAT:FORMATTED              ACCESS:SEQUENTIAL          

 OPENING ../data/tc2hufv4.huf
 FILE TYPE:HUF2   UNIT   11   STATUS:OLD    
 FORMAT:FORMATTED              ACCESS:SEQUENTIAL          

 OPENING tc2hufv4.hds
 FILE TYPE:DATA   UNIT   90   STATUS:UNKNOWN
 FORMAT:FORMATTED              ACCESS:SEQUENTIAL          
#Common files                                                                                                                                                                                           

 OPENING ../data/tc2hufv4.bas
 FILE TYPE:BAS6   UNIT    8   STATUS:OLD    
 FORMAT:FORMATTED              ACCESS:SEQUENTIAL          

 OPENING ../data/tc2hufv4.dis
 FILE TYPE:DIS   UNIT    9   STATUS:OLD    
 FORMAT:FORMATTED              ACCESS:SEQUENTIAL          

 OPENING ../data/tc2hufv4.wel
 FILE TYPE:WEL   UNIT   12   STATUS:OLD    
 FORMAT:FORMATTED              ACCESS:SEQUENTIAL          

 OPENING ../data/tc2hufv4.drn
 FILE TYPE:DRN   UNIT   13   STATUS:OLD    
 FORMAT:FORMATTED              ACCESS:SEQUENTIAL          

 OPENING ../data/tc2hufv4.evt
 FILE TYPE:EVT   UNIT   15   STATUS:OLD    
 FORMAT:FORMATTED              ACCESS:SEQUENTIAL          

 OPENING ../data/tc2hufv4.ghb
 FILE TYPE:GHB   UNIT   17   STATUS:OLD    
 FORMAT:FORMATTED              ACCESS:SEQUENTIAL          

 OPENING ../data/tc2hufv4.rch
 FILE TYPE:RCH   UNIT   18   STATUS:OLD    
 FORMAT:FORMATTED              ACCESS:SEQUENTIAL          

 OPENING ../data/tc2hufv4.oc
 FILE TYPE:OC   UNIT   22   STATUS:OLD    
 FORMAT:FORMATTED              ACCESS:SEQUENTIAL          

 OPENING ../data/tc2hufv4.pcg
 FILE TYPE:PCG   UNIT   23   STATUS:OLD    
 FORMAT:FORMATTED              ACCESS:SEQUENTIAL          

 OPENING ../data/tc2hufv4.obs
 FILE TYPE:OBS   UNIT   37   STATUS:OLD    
 FORMAT:FORMATTED              ACCESS:SEQUENTIAL          

 OPENING ../data/tc2hufv4.zon
 FILE TYPE:ZONE   UNIT   39   STATUS:OLD    
 FORMAT:FORMATTED              ACCESS:SEQUENTIAL          

 OPENING ../data/tc2hufv4.hob
 FILE TYPE:HOB   UNIT   40   STATUS:OLD    
 FORMAT:FORMATTED              ACCESS:SEQUENTIAL          

 OPENING ../data/tc2hufv4.odr
 FILE TYPE:DROB   UNIT   41   STATUS:OLD    
 FORMAT:FORMATTED              ACCESS:SEQUENTIAL          

 OPENING ../data/tc2hufv4.ogb
 FILE TYPE:GBOB   UNIT   42   STATUS:OLD    
 FORMAT:FORMATTED              ACCESS:SEQUENTIAL          

 THE FREE FORMAT OPTION HAS BEEN SELECTED

 DISCRETIZATION INPUT DATA READ FROM UNIT    9
 # DIS file for test case tc2hufv4
 #
    3 LAYERS        18 ROWS        18 COLUMNS
    1 STRESS PERIOD(S) IN SIMULATION
 MODEL TIME UNIT IS DAYS
 MODEL LENGTH UNIT IS METERS
 THE GROUND-WATER TRANSPORT PROCESS IS INACTIVE

 THE OBSERVATION PROCESS IS ACTIVE
 THE SENSITIVITY PROCESS IS INACTIVE
 THE PARAMETER-ESTIMATION PROCESS IS INACTIVE

 MODE: FORWARD WITH OBSERVATIONS


 ZONE OPTION, INPUT READ FROM UNIT   39
     4 ZONE ARRAYS
  Confining bed flag for each layer:
   0   0   0

       8784  ELEMENTS OF GX ARRAY USED OUT OF       8784
        972  ELEMENTS OF GZ ARRAY USED OUT OF        972
       2268  ELEMENTS OF IG ARRAY USED OUT OF       2268

                     DELR =   1500.00    

                     DELC =   1500.00    



           TOP ELEVATION OF LAYER 1
 READING ON UNIT    9 WITH FORMAT: (18F10.2)           



             MODEL LAYER BOTTOM EL. FOR LAYER   1
 READING ON UNIT    9 WITH FORMAT: (18F10.2)           



             MODEL LAYER BOTTOM EL. FOR LAYER   2
 READING ON UNIT    9 WITH FORMAT: (18F10.2)           



             MODEL LAYER BOTTOM EL. FOR LAYER   3
 READING ON UNIT    9 WITH FORMAT: (18F10.2)           


 STRESS PERIOD     LENGTH       TIME STEPS     MULTIPLIER FOR DELT    SS FLAG
 ----------------------------------------------------------------------------
        1         86400.00          1                    1.000         SS

 STEADY-STATE SIMULATION






             ZONE ARRAY: ZLAY1     
 READING ON UNIT   39 WITH FORMAT: (I1,17I2)           



             ZONE ARRAY: ZLAY2     
 READING ON UNIT   39 WITH FORMAT: (I1,17I2)           



             ZONE ARRAY: ZLAY3     
 READING ON UNIT   39 WITH FORMAT: (I1,17I2)           



             ZONE ARRAY: RCHETM    
 READING ON UNIT   39 WITH FORMAT: (I1,17I2)           

 HUF2 -- HYDROGEOLOGIC-UNIT FLOW PACKAGE,            VERSION 2.0, 07/02/2003
 INPUT READ FROM UNIT 11

 # HUF file for Test Case 2 Variant 4
 #
 HEAD AT CELLS THAT CONVERT TO DRY=  -999.00    
 Hydrogeologic-Unit Flow Package Active with   5 units and  12 parameters
 HEADS IN HYDROGEOLOGIC UNITS WILL BE SAVED ON UNIT 90

 IOHUFFLWS NOT FOUND AND WILL BE SET TO BE ZERO

    12 Named Parameters     
 STEADY-STATE SIMULATION

   INTERPRETATION OF LAYER FLAGS:
 LAYER     LTHUF    LAYER TYPE     LAYWT WETTABILITY
 ---------------------------------------------------------------------------
    1         0      CONFINED         0  NON-WETTABLE
    2         0      CONFINED         0  NON-WETTABLE
    3         0      CONFINED         0  NON-WETTABLE

       7776 ELEMENTS IN X ARRAY ARE USED BY HUF
         25 ELEMENTS IN IX ARRAY ARE USED BY HUF

 PCG2 -- CONJUGATE GRADIENT SOLUTION PACKAGE, VERSION 2.4, 12/29/98
 MAXIMUM OF    250 CALLS OF SOLUTION ROUTINE
 MAXIMUM OF      8 INTERNAL ITERATIONS PER CALL TO SOLUTION ROUTINE
 MATRIX PRECONDITIONING TYPE :    1
       5944 ELEMENTS IN X ARRAY ARE USED BY PCG
      14000 ELEMENTS IN IX ARRAY ARE USED BY PCG
       3888 ELEMENTS IN Z ARRAY ARE USED BY PCG

 OBS1BAS6 -- OBSERVATION PROCESS, VERSION 1.0, 4/27/99
 INPUT READ FROM UNIT  37
 OBSERVATION GRAPH-DATA OUTPUT FILES WILL NOT BE PRINTED

 HEAD OBSERVATIONS -- INPUT READ FROM UNIT  40

 NUMBER OF HEADS....................................:   42
   NUMBER OF MULTILAYER HEADS.......................:    2
   MAXIMUM NUMBER OF LAYERS FOR MULTILAYER HEADS....:    3

 OBS1DRN6 -- OBSERVATION PROCESS (DRAIN FLOW OBSERVATIONS)
 VERSION 1.0, 10/15/98
 INPUT READ FROM UNIT   41

 NUMBER OF FLOW-OBSERVATION DRAIN-CELL GROUPS.....:      5
   NUMBER OF CELLS IN DRAIN-CELL GROUPS...........:      5
   NUMBER OF DRAIN-CELL FLOWS.....................:      5

 OBS1GHB6 -- OBSERVATION PROCESS (GENERAL HEAD BOUNDARY FLOW OBSERVATIONS)
 VERSION 1.0, 10/15/98
 INPUT READ FROM UNIT   42

 NUMBER OF FLOW-OBSERVATION GENERAL-HEAD-CELL GROUPS:      5
   NUMBER OF CELLS IN GENERAL-HEAD-CELL GROUPS......:      5
   NUMBER OF GENERAL-HEAD-CELL FLOWS................:      5

       1040 ELEMENTS IN X ARRAY ARE USED FOR OBSERVATIONS
        132 ELEMENTS IN Z ARRAY ARE USED FOR OBSERVATIONS
        509 ELEMENTS IN IX ARRAY ARE USED FOR OBSERVATIONS

 COMMON ERROR VARIANCE FOR ALL OBSERVATIONS SET TO:       1.000    

      14760  ELEMENTS OF X ARRAY USED OUT OF      14760
       4020  ELEMENTS OF Z ARRAY USED OUT OF       4020
      14534  ELEMENTS OF IX ARRAY USED OUT OF      14534
          0  ELEMENTS OF XHS ARRAY USED OUT OF          1

 HEAD OBSERVATION VARIANCES ARE MULTIPLIED BY:       1.000    

 OBSERVED HEAD DATA -- TIME OFFSETS ARE MULTIPLIED BY:   1.0000    

                    REFER.
       OBSERVATION  STRESS    TIME                              STATISTIC   PLOT
  OBS#    NAME      PERIOD   OFFSET    OBSERVATION  STATISTIC     TYPE      SYM.
     1 Wl2-4            1    0.000       979.0       5.000      STD. DEV.      1
     2 WL2-7            1    0.000       1015.       5.000      STD. DEV.      1
     3 WL2-10           1    0.000       1186.       5.000      STD. DEV.      1
     4 WL4-2            1    0.000       291.7       5.000      STD. DEV.      1
     5 WL4-6            1    0.000       964.4       5.000      STD. DEV.      1
     6 WL4-9            1    0.000       1177.       5.000      STD. DEV.      1
     7 WL4-12           1    0.000       1192.       5.000      STD. DEV.      1
     8 WL5-4            1    0.000       760.7       5.000      STD. DEV.      1
     MULTIPLE LAYERS AND PROPORTIONS :    1, 0.34       2, 0.33       3, 0.33
     9 WL6-2            1    0.000       188.8       5.000      STD. DEV.      1
    10 WL6-6            1    0.000       892.6       5.000      STD. DEV.      1
    11 WL6-8            1    0.000       906.9       5.000      STD. DEV.      1
    12 WL6-11           1    0.000       1201.       5.000      STD. DEV.      1
    13 WL6-14           1    0.000       1198.       5.000      STD. DEV.      1
    14 WL6-16           1    0.000       1198.       5.000      STD. DEV.      1
    15 WL8-2            1    0.000       210.0       5.000      STD. DEV.      1
    16 WL8-4            1    0.000       642.5       5.000      STD. DEV.      1
    17 WL8-7            1    0.000       1014.       5.000      STD. DEV.      1
    18 WL8-10           1    0.000       1233.       5.000      STD. DEV.      1
    19 WL8-13           1    0.000       1257.       5.000      STD. DEV.      1
    20 WL8-16           1    0.000       1201.       5.000      STD. DEV.      1
    21 WL9-3            1    0.000       445.0       5.000      STD. DEV.      1
    22 WL10-4           1    0.000       635.4       5.000      STD. DEV.      1
    23 WL10-6           1    0.000       941.0       5.000      STD. DEV.      1
     MULTIPLE LAYERS AND PROPORTIONS :    1, 0.34       2, 0.33       3, 0.33
    24 WL10-9           1    0.000       1108.       5.000      STD. DEV.      1
    25 WL10-11          1    0.000       1395.       5.000      STD. DEV.      1
    26 WL10-14          1    0.000       1277.       5.000      STD. DEV.      1
    27 WL10-17          1    0.000       1159.       5.000      STD. DEV.      1
    28 WL11-2           1    0.000       336.4       5.000      STD. DEV.      1
    29 WL12-8           1    0.000       1063.       5.000      STD. DEV.      1
    30 WL12-10          1    0.000       1312.       5.000      STD. DEV.      1
    31 WL12-13          1    0.000       1479.       5.000      STD. DEV.      1
    32 WL12-16          1    0.000       1219.       5.000      STD. DEV.      1
    33 WL13-11          1    0.000       1483.       5.000      STD. DEV.      1
    34 WL13-15          1    0.000       1315.       5.000      STD. DEV.      1
    35 WL14-9           1    0.000       1225.       5.000      STD. DEV.      1
    36 WL14-12          1    0.000       1405.       5.000      STD. DEV.      1
    37 WL14-17          1    0.000       1193.       5.000      STD. DEV.      1
    38 WL15-14          1    0.000       1219.       5.000      STD. DEV.      1
    39 WL16-12          1    0.000       1263.       5.000      STD. DEV.      1
    40 WL16-16          1    0.000       1197.       5.000      STD. DEV.      1
    41 WL18-13          1    0.000       1235.       5.000      STD. DEV.      1
    42 WL18-18          1    0.000       1194.       5.000      STD. DEV.      1

                                                     HEAD CHANGE
                                                      REFERENCE
        OBSERVATION                   ROW     COL    OBSERVATION
  OBS#     NAME       LAY  ROW  COL  OFFSET  OFFSET   (IF > 0)
     1  Wl2-4           1    2    4   0.000   0.000        0
     2  WL2-7           1    2    7   0.000   0.000        0
     3  WL2-10          1    2   10   0.000   0.000        0
     4  WL4-2           1    4    2   0.000   0.000        0
     5  WL4-6           1    4    6   0.000   0.000        0
     6  WL4-9           1    4    9   0.000   0.000        0
     7  WL4-12          1    4   12   0.000   0.000        0
     8  WL5-4          -3    5    4   0.000   0.000        0
     9  WL6-2           1    6    2   0.000   0.000        0
    10  WL6-6           1    6    6   0.000   0.000        0
    11  WL6-8           1    6    8   0.000   0.000        0
    12  WL6-11          1    6   11   0.000   0.000        0
    13  WL6-14          1    6   14   0.000   0.000        0
    14  WL6-16          1    6   16   0.000   0.000        0
    15  WL8-2           1    8    2   0.000   0.000        0
    16  WL8-4           1    8    4   0.000   0.000        0
    17  WL8-7           1    8    7   0.000   0.000        0
    18  WL8-10          1    8   10   0.000   0.000        0
    19  WL8-13          1    8   13   0.000   0.000        0
    20  WL8-16          1    8   16   0.000   0.000        0
    21  WL9-3           1    9    3   0.000   0.000        0
    22  WL10-4          1   10    4   0.000   0.000        0
    23  WL10-6         -3   10    6   0.000   0.000        0
    24  WL10-9          1   10    9   0.000   0.000        0
    25  WL10-11         1   10   11   0.000   0.000        0
    26  WL10-14         1   10   14   0.000   0.000        0
    27  WL10-17         1   10   17   0.000   0.000        0
    28  WL11-2          1   11    2   0.000   0.000        0
    29  WL12-8          1   12    8   0.000   0.000        0
    30  WL12-10         1   12   10   0.000   0.000        0
    31  WL12-13         1   12   13   0.000   0.000        0
    32  WL12-16         1   12   16   0.000   0.000        0
    33  WL13-11         1   13   11   0.000   0.000        0
    34  WL13-15         1   13   15   0.000   0.000        0
    35  WL14-9          1   14    9   0.000   0.000        0
    36  WL14-12         1   14   12   0.000   0.000        0
    37  WL14-17         1   14   17   0.000   0.000        0
    38  WL15-14         1   15   14   0.000   0.000        0
    39  WL16-12         1   16   12   0.000   0.000        0
    40  WL16-16         1   16   16   0.000   0.000        0
    41  WL18-13         1   18   13   0.000   0.000        0
    42  WL18-18         1   18   18   0.000   0.000        0

 DRAIN-CELL FLOW OBSERVATION VARIANCES ARE MULTIPLIED BY:       1.000    

 OBSERVED DRAIN-CELL FLOW DATA
 -- TIME OFFSETS ARE MULTIPLIED BY:   1.0000    

 GROUP NUMBER:      1    BOUNDARY TYPE: DRN    NUMBER OF CELLS IN GROUP:     -1
 NUMBER OF FLOW OBSERVATIONS:      1

                    REFER.              OBSERVED
       OBSERVATION  STRESS    TIME     DRAIN FLOW               STATISTIC   PLOT
  OBS#    NAME      PERIOD   OFFSET     GAIN (-)    STATISTIC     TYPE      SYM.
    43 DRN1             1    0.000      -522.0      0.3000      COEF. VAR.     4

       LAYER  ROW  COLUMN    FACTOR
          1.    7.     6.     1.00

 GROUP NUMBER:      2    BOUNDARY TYPE: DRN    NUMBER OF CELLS IN GROUP:     -1
 NUMBER OF FLOW OBSERVATIONS:      1

                    REFER.              OBSERVED
       OBSERVATION  STRESS    TIME     DRAIN FLOW               STATISTIC   PLOT
  OBS#    NAME      PERIOD   OFFSET     GAIN (-)    STATISTIC     TYPE      SYM.
    44 DRN2             1    0.000      -845.0      0.3000      COEF. VAR.     4

       LAYER  ROW  COLUMN    FACTOR
          1.   10.    11.     1.00

 GROUP NUMBER:      3    BOUNDARY TYPE: DRN    NUMBER OF CELLS IN GROUP:     -1
 NUMBER OF FLOW OBSERVATIONS:      1

                    REFER.              OBSERVED
       OBSERVATION  STRESS    TIME     DRAIN FLOW               STATISTIC   PLOT
  OBS#    NAME      PERIOD   OFFSET     GAIN (-)    STATISTIC     TYPE      SYM.
    45 DRN3             1    0.000      -133.0      0.3000      COEF. VAR.     4

       LAYER  ROW  COLUMN    FACTOR
          1.   14.    14.     1.00

 GROUP NUMBER:      4    BOUNDARY TYPE: DRN    NUMBER OF CELLS IN GROUP:     -1
 NUMBER OF FLOW OBSERVATIONS:      1

                    REFER.              OBSERVED
       OBSERVATION  STRESS    TIME     DRAIN FLOW               STATISTIC   PLOT
  OBS#    NAME      PERIOD   OFFSET     GAIN (-)    STATISTIC     TYPE      SYM.
    46 DRN4             1    0.000      -19.00      0.3000      COEF. VAR.     4

       LAYER  ROW  COLUMN    FACTOR
          1.   15.    14.     1.00

 GROUP NUMBER:      5    BOUNDARY TYPE: DRN    NUMBER OF CELLS IN GROUP:     -1
 NUMBER OF FLOW OBSERVATIONS:      1

                    REFER.              OBSERVED
       OBSERVATION  STRESS    TIME     DRAIN FLOW               STATISTIC   PLOT
  OBS#    NAME      PERIOD   OFFSET     GAIN (-)    STATISTIC     TYPE      SYM.
    47 DRN5             1    0.000      -6.200      0.3000      COEF. VAR.     4

       LAYER  ROW  COLUMN    FACTOR
          1.   16.    14.     1.00

 GENERAL-HEAD-CELL FLOW OBSERVATION VARIANCES ARE MULTIPLIED BY:       1.000    

 OBSERVED GENERAL-HEAD-CELL FLOW DATA
 -- TIME OFFSETS ARE MULTIPLIED BY:   1.0000    

   GROUP NUMBER:      6   BOUNDARY TYPE: GHB   NUMBER OF CELLS IN GROUP:     -1
   NUMBER OF FLOW OBSERVATIONS:      1

                                        OBSERVED
                    REFER.            BOUNDARY FLOW
       OBSERVATION  STRESS    TIME     GAIN (-) OR              STATISTIC   PLOT
  OBS#    NAME      PERIOD   OFFSET     LOSS (+)    STATISTIC     TYPE      SYM.
    48 GHB1             1    0.000      -608.0      0.3000      COEF. VAR.     3

       LAYER  ROW  COLUMN    FACTOR
          1.    3.     6.     1.00

   GROUP NUMBER:      7   BOUNDARY TYPE: GHB   NUMBER OF CELLS IN GROUP:     -1
   NUMBER OF FLOW OBSERVATIONS:      1

                                        OBSERVED
                    REFER.            BOUNDARY FLOW
       OBSERVATION  STRESS    TIME     GAIN (-) OR              STATISTIC   PLOT
  OBS#    NAME      PERIOD   OFFSET     LOSS (+)    STATISTIC     TYPE      SYM.
    49 GHB2             1    0.000      -687.0      0.3000      COEF. VAR.     3

       LAYER  ROW  COLUMN    FACTOR
          1.    3.    11.     1.00

   GROUP NUMBER:      8   BOUNDARY TYPE: GHB   NUMBER OF CELLS IN GROUP:     -1
   NUMBER OF FLOW OBSERVATIONS:      1

                                        OBSERVED
                    REFER.            BOUNDARY FLOW
       OBSERVATION  STRESS    TIME     GAIN (-) OR              STATISTIC   PLOT
  OBS#    NAME      PERIOD   OFFSET     LOSS (+)    STATISTIC     TYPE      SYM.
    50 GHB3             1    0.000      -660.0      0.3000      COEF. VAR.     3

       LAYER  ROW  COLUMN    FACTOR
          1.    4.    11.     1.00

   GROUP NUMBER:      9   BOUNDARY TYPE: GHB   NUMBER OF CELLS IN GROUP:     -1
   NUMBER OF FLOW OBSERVATIONS:      1

                                        OBSERVED
                    REFER.            BOUNDARY FLOW
       OBSERVATION  STRESS    TIME     GAIN (-) OR              STATISTIC   PLOT
  OBS#    NAME      PERIOD   OFFSET     LOSS (+)    STATISTIC     TYPE      SYM.
    51 GHB4             1    0.000      -654.0      0.3000      COEF. VAR.     3

       LAYER  ROW  COLUMN    FACTOR
          1.    5.    11.     1.00

   GROUP NUMBER:     10   BOUNDARY TYPE: GHB   NUMBER OF CELLS IN GROUP:     -1
   NUMBER OF FLOW OBSERVATIONS:      1

                                        OBSERVED
                    REFER.            BOUNDARY FLOW
       OBSERVATION  STRESS    TIME     GAIN (-) OR              STATISTIC   PLOT
  OBS#    NAME      PERIOD   OFFSET     LOSS (+)    STATISTIC     TYPE      SYM.
    52 GHB5             1    0.000      -36.70      0.3000      COEF. VAR.     3

       LAYER  ROW  COLUMN    FACTOR
          1.   12.     9.     1.00



                                    SOLUTION BY THE CONJUGATE-GRADIENT METHOD
                                   -------------------------------------------
                    MAXIMUM NUMBER OF CALLS TO PCG ROUTINE =      250
                        MAXIMUM ITERATIONS PER CALL TO PCG =        8
                               MATRIX PRECONDITIONING TYPE =        1
        RELAXATION FACTOR (ONLY USED WITH PRECOND. TYPE 1) =    0.10000E+01
 PARAMETER OF POLYNOMIAL PRECOND. = 2 (2) OR IS CALCULATED :        2
                         HEAD CHANGE CRITERION FOR CLOSURE =    0.10000E-03
                     RESIDUAL CHANGE CRITERION FOR CLOSURE =    0.80000E+02
            PCG HEAD AND RESIDUAL CHANGE PRINTOUT INTERVAL =      999
     PRINTING FROM SOLVER IS LIMITED(1) OR SUPPRESSED (>1) =        1
                                         DAMPING PARAMETER =    0.10000E+01

 WETTING CAPABILITY IS NOT ACTIVE IN ANY LAYER


 HUF2 -- HYDROGEOLOGIC-UNIT FLOW PACKAGE
 ---------------------------------------------------------------------------



            TOP ELEVATN: HGU1      
 READING ON UNIT   11 WITH FORMAT: (9F10.2)            

            1           2           3           4           5           6
            7           8           9          10          11          12
           13          14          15          16          17          18
 ........................................................................
   1    0.000       466.7       970.9       979.2       979.5       980.1    
        1025.       1124.       1184.       1186.       1187.       9999.    
        9999.       9999.       9999.       9999.       9999.       9999.    
   2    0.000       460.5       968.8       979.0       979.2       979.8    
        1015.       1103.       1171.       1186.       1187.       1189.    
        9999.       9999.       9999.       9999.       9999.       9999.    
   3    0.000       433.0       961.2       973.6       978.5       957.7    
        987.5       1089.       1180.       1187.       1187.       1190.    
        1192.       9999.       9999.       9999.       9999.       9999.    
   4    0.000       291.7       752.5       967.2       971.5       964.3    
        990.4       1083.       1177.       1177.       1160.       1192.    
        1194.       1195.       9999.       9999.       9999.       9999.    
   5    0.000       220.9       552.0       799.2       897.5       929.4    
        956.1       983.7       1078.       1148.       1154.       1194.    
        1195.       1196.       1197.       9999.       9999.       9999.    
   6    0.000       188.8       463.0       692.6       852.1       892.6    
        932.8       906.9       1008.       1148.       1201.       1196.    
        1196.       1198.       1198.       1198.       9999.       9999.    
   7    27.65       189.7       420.5       653.2       857.1       922.1    
        1015.       951.2       1024.       1184.       1260.       1242.    
        1215.       1201.       1200.       1199.       1197.       9999.    
   8    50.33       210.0       431.3       642.5       850.8       944.4    
        1014.       953.3       1037.       1233.       1337.       1346.    
        1257.       1205.       1204.       1201.       1197.       1100.    
   9    67.18       233.9       445.0       634.7       835.3       925.8    
        971.0       931.5       1050.       1276.       1407.       1450.    
        1357.       1210.       1209.       1205.       1177.       1100.    
  10    77.44       262.6       462.4       635.4       812.4       951.3    
        990.3       999.7       1108.       1286.       1395.       1453.    
        1425.       1277.       1214.       1202.       1159.       1100.    
  11    207.6       336.4       484.5       641.0       809.6       926.6    
        996.2       1046.       1130.       1312.       1441.       1457.    
        1448.       1316.       1217.       1205.       1157.       1100.    
  12    9999.       9999.       9999.       9999.       871.6       949.9    
        1018.       1063.       1037.       1312.       1460.       1460.    
        1479.       1376.       1285.       1218.       1165.       1100.    
  13    9999.       9999.       9999.       9999.       9999.       1000.    
        1063.       1124.       1185.       1337.       1483.       1514.    
        1515.       1419.       1315.       1229.       1182.       1154.    
  14    9999.       9999.       9999.       9999.       9999.       9999.    
        1118.       1183.       1225.       1283.       1375.       1405.    
        1388.       1333.       1276.       1216.       1193.       1178.    
  15    9999.       9999.       9999.       9999.       9999.       9999.    
        9999.       1239.       1241.       1243.       1283.       1304.    
        1287.       1219.       1241.       1207.       1193.       1189.    
  16    9999.       9999.       9999.       9999.       9999.       9999.    
        9999.       9999.       1242.       1242.       1256.       1263.    
        1249.       1206.       1216.       1197.       1193.       1192.    
  17    9999.       9999.       9999.       9999.       9999.       9999.    
        9999.       9999.       9999.       1242.       1247.       1247.    
        1239.       1221.       1209.       1196.       1194.       1194.    
  18    9999.       9999.       9999.       9999.       9999.       9999.    
        9999.       9999.       9999.       9999.       1245.       1242.    
        1235.       1223.       1208.       1195.       1195.       1194.    

    THICKNESS: HGU1       =   300.000    



            TOP ELEVATN: HGU2      
 READING ON UNIT   11 WITH FORMAT: (9F10.2)            

            1           2           3           4           5           6
            7           8           9          10          11          12
           13          14          15          16          17          18
 ........................................................................
   1   -300.0       166.7       670.9       679.2       679.5       680.1    
        725.0       823.7       884.3       885.8       886.5       0.000    
        0.000       0.000       0.000       0.000       0.000       0.000    
   2   -300.0       160.5       668.8       679.0       679.2       679.8    
        715.1       803.0       870.6       886.5       887.3       888.7    
        0.000       0.000       0.000       0.000       0.000       0.000    
   3   -300.0       132.9       661.2       673.6       678.5       657.7    
        687.5       788.8       879.7       886.8       887.4       890.0    
        891.8       0.000       0.000       0.000       0.000       0.000    
   4   -300.0      -8.310       452.5       667.2       671.5       664.3    
        690.4       782.6       876.5       877.2       859.7       892.4    
        893.5       894.9       0.000       0.000       0.000       0.000    
   5   -300.0      -79.14       252.0       499.1       597.5       629.4    
        656.1       683.7       777.5       847.7       854.3       894.2    
        895.1       896.3       897.3       0.000       0.000       0.000    
   6   -300.0      -111.2       163.0       392.6       552.1       592.6    
        632.8       606.9       707.6       847.7       901.2       895.8    
        896.4       897.9       898.3       898.3       0.000       0.000    
   7   -272.4      -110.3       120.5       353.2       557.1       622.1    
        714.7       651.2       723.8       884.0       959.7       942.4    
        915.4       900.6       900.0       898.8       897.3       0.000    
   8   -249.7      -90.01       131.3       342.5       550.8       644.4    
        714.5       653.3       736.8       933.0       1037.       1046.    
        956.8       905.0       903.7       900.9       897.3       800.0    
   9   -232.8      -66.07       145.0       334.7       535.3       625.8    
        671.0       631.5       749.6       975.6       1107.       1150.    
        1057.       910.0       909.1       904.7       876.9       800.0    
  10   -222.6      -37.41       162.4       335.4       512.4       651.3    
        690.3       699.7       807.8       986.3       1095.       1153.    
        1125.       976.8       914.3       902.2       859.1       800.0    
  11   -92.35       36.39       184.5       341.0       509.6       626.6    
        696.2       745.8       829.6       1012.       1141.       1157.    
        1148.       1016.       917.3       904.8       857.2       800.0    
  12    0.000       0.000       0.000       0.000       571.6       649.9    
        718.2       762.9       736.7       1012.       1160.       1160.    
        1179.       1076.       984.8       918.5       864.7       800.0    
  13    0.000       0.000       0.000       0.000       0.000       700.4    
        763.0       823.8       885.0       1037.       1183.       1214.    
        1215.       1119.       1015.       928.8       882.0       853.7    
  14    0.000       0.000       0.000       0.000       0.000       0.000    
        817.5       883.2       925.0       983.5       1075.       1105.    
        1088.       1033.       976.0       915.9       893.0       877.7    
  15    0.000       0.000       0.000       0.000       0.000       0.000    
        0.000       939.2       941.1       942.5       982.9       1004.    
        986.9       919.0       940.7       906.7       893.3       888.8    
  16    0.000       0.000       0.000       0.000       0.000       0.000    
        0.000       0.000       941.5       942.1       955.5       962.5    
        949.1       906.2       916.2       897.5       893.3       892.3    
  17    0.000       0.000       0.000       0.000       0.000       0.000    
        0.000       0.000       0.000       942.2       946.7       947.2    
        938.5       921.5       909.4       895.8       894.2       893.7    
  18    0.000       0.000       0.000       0.000       0.000       0.000    
        0.000       0.000       0.000       0.000       944.5       942.2    
        934.8       922.8       908.1       895.5       894.6       894.1    

    THICKNESS: HGU2       =   200.000    



            TOP ELEVATN: HGU3      
 READING ON UNIT   11 WITH FORMAT: (9F10.2)            

            1           2           3           4           5           6