                                  MODFLOW-2000
      U.S. GEOLOGICAL SURVEY MODULAR FINITE-DIFFERENCE GROUND-WATER FLOW MODEL
                           VERSION 1.17.01 09/22/2006


 This model run produced both GLOBAL and LIST files.  This is the GLOBAL file.

 GLOBAL LISTING FILE: tc3.glo
                         UNIT   11

 OPENING tc3.lst
 FILE TYPE:LIST   UNIT   12   STATUS:REPLACE
 FORMAT:FORMATTED              ACCESS:SEQUENTIAL          
#                                                                                                                                                                                                       
# Obs-Sen-Pes process input files                                                                                                                                                                       

 OPENING ../data/tc3.obs
 FILE TYPE:OBS   UNIT   21   STATUS:OLD    
 FORMAT:FORMATTED              ACCESS:SEQUENTIAL          

 OPENING ../data/tc3.hob
 FILE TYPE:HOB   UNIT   22   STATUS:OLD    
 FORMAT:FORMATTED              ACCESS:SEQUENTIAL          

 OPENING ../data/tc3.sen
 FILE TYPE:SEN   UNIT   23   STATUS:OLD    
 FORMAT:FORMATTED              ACCESS:SEQUENTIAL          

 OPENING ../data/tc3.pes
 FILE TYPE:PES   UNIT   24   STATUS:OLD    
 FORMAT:FORMATTED              ACCESS:SEQUENTIAL          
#                                                                                                                                                                                                       
# Global input files                                                                                                                                                                                    

 OPENING ../data/tc3.dis
 FILE TYPE:DIS   UNIT   31   STATUS:OLD    
 FORMAT:FORMATTED              ACCESS:SEQUENTIAL          

 OPENING ../data/tc3.mlt
 FILE TYPE:MULT   UNIT   32   STATUS:OLD    
 FORMAT:FORMATTED              ACCESS:SEQUENTIAL          

 OPENING ../data/tc3.zon
 FILE TYPE:ZONE   UNIT   33   STATUS:OLD    
 FORMAT:FORMATTED              ACCESS:SEQUENTIAL          
#                                                                                                                                                                                                       
# Flow process input files                                                                                                                                                                              

 OPENING ../data/tc3.bas
 FILE TYPE:BAS6   UNIT   41   STATUS:OLD    
 FORMAT:FORMATTED              ACCESS:SEQUENTIAL          

 OPENING ../data/tc3.lpf
 FILE TYPE:LPF   UNIT   42   STATUS:OLD    
 FORMAT:FORMATTED              ACCESS:SEQUENTIAL          

 OPENING ../data/tc3.wel
 FILE TYPE:WEL   UNIT   43   STATUS:OLD    
 FORMAT:FORMATTED              ACCESS:SEQUENTIAL          

 OPENING ../data/tc3.pcg
 FILE TYPE:PCG   UNIT   44   STATUS:OLD    
 FORMAT:FORMATTED              ACCESS:SEQUENTIAL          

 OPENING ../data/tc3.bnd
 FILE TYPE:DATA   UNIT   45   STATUS:UNKNOWN
 FORMAT:FORMATTED              ACCESS:SEQUENTIAL          

 OPENING ../data/tc3.oc
 FILE TYPE:OC   UNIT   46   STATUS:OLD    
 FORMAT:FORMATTED              ACCESS:SEQUENTIAL          

 OPENING ../data/tc3.shd
 FILE TYPE:DATA   UNIT   47   STATUS:UNKNOWN
 FORMAT:FORMATTED              ACCESS:SEQUENTIAL          

 OPENING ../data/tc3.riv
 FILE TYPE:RIV   UNIT   48   STATUS:OLD    
 FORMAT:FORMATTED              ACCESS:SEQUENTIAL          

 OPENING ../data/tc3.chd
 FILE TYPE:CHD   UNIT   49   STATUS:OLD    
 FORMAT:FORMATTED              ACCESS:SEQUENTIAL          

 OPENING ../data/tc3.rch
 FILE TYPE:RCH   UNIT   50   STATUS:OLD    
 FORMAT:FORMATTED              ACCESS:SEQUENTIAL          

 THE FREE FORMAT OPTION HAS BEEN SELECTED

 DISCRETIZATION INPUT DATA READ FROM UNIT   31
 # DIS file for test case tc3
 #
    1 LAYERS        17 ROWS        16 COLUMNS
    1 STRESS PERIOD(S) IN SIMULATION
 MODEL TIME UNIT IS DAYS
 MODEL LENGTH UNIT IS FEET
 THE GROUND-WATER TRANSPORT PROCESS IS INACTIVE

 THE OBSERVATION PROCESS IS ACTIVE
 THE SENSITIVITY PROCESS IS ACTIVE
 THE PARAMETER-ESTIMATION PROCESS IS ACTIVE

 MODE: PARAMETER ESTIMATION


 ZONE OPTION, INPUT READ FROM UNIT   33
     1 ZONE ARRAYS

 MULTIPLIER OPTION, INPUT READ FROM UNIT   32
   1 MULTIPLIER ARRAYS
  Confining bed flag for each layer:
   0

       2753  ELEMENTS OF GX ARRAY USED OUT OF       2753
        272  ELEMENTS OF GZ ARRAY USED OUT OF        272
        544  ELEMENTS OF IG ARRAY USED OUT OF        544



                               DELR
 READING ON UNIT   31 WITH FORMAT: (8F8.0)             
   1000.0       1000.0       1000.0       1000.0       1000.0       1000.0       1000.0       200.00       200.00       1000.0    
   1000.0       1000.0       1000.0       1000.0       1000.0       50.000    



                               DELC
 READING ON UNIT   31 WITH FORMAT: (8F8.0)             
   50.000       1000.0       1000.0       1000.0       1000.0       1000.0       1000.0       1000.0       1000.0       1000.0    
   200.00       200.00       1000.0       1000.0       1000.0       1000.0       1000.0    

 TOP ELEVATION OF LAYER 1 =  -9.00000    

   MODEL LAYER BOTTOM EL. =  -10.0000     FOR LAYER   1


 STRESS PERIOD     LENGTH       TIME STEPS     MULTIPLIER FOR DELT    SS FLAG
 ----------------------------------------------------------------------------
        1         86400.00          1                    1.000         SS

 STEADY-STATE SIMULATION






            MULT. ARRAY: RCH_MULT  
 READING ON UNIT   32 WITH FORMAT: (8F8.0)             

              1             2             3             4             5             6             7             8             9
             10            11            12            13            14            15            16
 ..............................................................................................................................
   1    0.00000       0.00000       0.00000       0.00000       0.00000       0.00000       0.00000       0.00000       0.00000    
        0.00000       0.00000       0.00000       0.00000       0.00000       0.00000       0.00000    
   2   3.000000E-04  3.000000E-04  3.000000E-04  3.000000E-04  3.000000E-04  3.000000E-04 -1.000000E-04   0.00000       0.00000    
      -1.000000E-04 -1.000000E-04 -1.000000E-04 -1.000000E-04 -1.000000E-04 -1.000000E-04   0.00000    
   3   3.000000E-04  3.000000E-04  3.000000E-04  3.000000E-04  3.000000E-04  3.000000E-04 -1.000000E-04   0.00000       0.00000    
      -1.000000E-04 -1.000000E-04 -1.000000E-04 -1.000000E-04 -1.000000E-04 -1.000000E-04   0.00000    
   4   3.000000E-04  3.000000E-04  3.000000E-04  3.000000E-04  3.000000E-04  3.000000E-04 -1.000000E-04   0.00000       0.00000    
      -1.000000E-04 -1.000000E-04 -1.000000E-04 -1.000000E-04 -1.000000E-04 -1.000000E-04   0.00000    
   5   3.000000E-04  3.000000E-04  3.000000E-04  3.000000E-04  3.000000E-04  3.000000E-04 -1.000000E-04   0.00000       0.00000    
      -1.000000E-04 -1.000000E-04 -1.000000E-04 -1.000000E-04 -1.000000E-04 -1.000000E-04   0.00000    
   6  -1.000000E-04 -1.000000E-04 -1.000000E-04 -1.000000E-04 -1.000000E-04 -1.000000E-04 -1.000000E-04   0.00000       0.00000    
      -1.000000E-04 -1.000000E-04 -1.000000E-04 -1.000000E-04 -1.000000E-04 -1.000000E-04   0.00000    
   7  -1.000000E-04 -1.000000E-04 -1.000000E-04 -1.000000E-04 -1.000000E-04 -1.000000E-04 -1.000000E-04   0.00000       0.00000    
      -1.000000E-04 -1.000000E-04 -1.000000E-04 -1.000000E-04 -1.000000E-04 -1.000000E-04   0.00000    
   8  -1.000000E-04 -1.000000E-04 -1.000000E-04 -1.000000E-04 -1.000000E-04 -1.000000E-04 -1.000000E-04   0.00000       0.00000    
      -1.000000E-04 -1.000000E-04 -1.000000E-04 -1.000000E-04 -1.000000E-04 -1.000000E-04   0.00000    
   9    0.00000       0.00000       0.00000       0.00000       0.00000     -1.000000E-04 -1.000000E-04   0.00000       0.00000    
      -1.000000E-04 -1.000000E-04 -1.000000E-04 -1.000000E-04 -1.000000E-04 -1.000000E-04   0.00000    
  10    0.00000       0.00000       0.00000       0.00000       0.00000     -1.000000E-04 -1.000000E-04   0.00000       0.00000    
      -1.000000E-04 -1.000000E-04 -1.000000E-04 -1.000000E-04 -1.000000E-04 -1.000000E-04   0.00000    
  11    0.00000       0.00000       0.00000       0.00000       0.00000     -1.000000E-04 -1.000000E-04   0.00000       0.00000    
        0.00000       0.00000       0.00000       0.00000       0.00000       0.00000       0.00000    
  12    0.00000       0.00000       0.00000       0.00000       0.00000     -1.000000E-04 -1.000000E-04   0.00000       0.00000    
        0.00000       0.00000       0.00000       0.00000       0.00000       0.00000       0.00000    
  13    0.00000       0.00000       0.00000       0.00000       0.00000     -1.000000E-04 -1.000000E-04 -1.000000E-04 -1.000000E-04
      -1.000000E-04 -1.000000E-04 -1.000000E-04 -1.000000E-04 -1.000000E-04 -1.000000E-04   0.00000    
  14    0.00000       0.00000       0.00000       0.00000       0.00000     -1.000000E-04 -1.000000E-04  2.000000E-04  2.000000E-04
       2.000000E-04  2.000000E-04  2.000000E-04  2.000000E-04  2.000000E-04  2.000000E-04   0.00000    
  15    0.00000       0.00000       0.00000       0.00000       0.00000      2.000000E-04  2.000000E-04  2.000000E-04  2.000000E-04
       2.000000E-04  2.000000E-04  2.000000E-04  2.000000E-04  2.000000E-04  2.000000E-04   0.00000    
  16    0.00000       0.00000       0.00000       0.00000       0.00000      2.000000E-04  2.000000E-04  2.000000E-04  2.000000E-04
       2.000000E-04  2.000000E-04  2.000000E-04  2.000000E-04  2.000000E-04  2.000000E-04   0.00000    
  17    0.00000       0.00000       0.00000       0.00000       0.00000      2.000000E-04  2.000000E-04  2.000000E-04  2.000000E-04
       2.000000E-04  2.000000E-04  2.000000E-04  2.000000E-04  2.000000E-04  2.000000E-04   0.00000    



             ZONE ARRAY: L1_T_ZONES
 READING ON UNIT   33 WITH FORMAT: (8I8)               

                1           2           3           4           5           6           7           8           9          10
               11          12          13          14          15          16
 ............................................................................................................................
   1            4           4           4           4           4           4           5           5           5           5
                5           5           5           5           5           5
   2            1           1           1           1           1           1           2           5           5           2
                2           2           2           2           2           5
   3            1           1           1           1           1           1           2           5           5           2
                2           2           2           2           2           5
   4            1           1           1           1           1           1           2           5           5           2
                2           2           2           2           2           5
   5            1           1           1           1           1           1           2           5           5           2
                2           2           2           2           2           5
   6            2           2           2           2           2           2           2           5           5           2
                2           2           2           2           2           5
   7            2           2           2           2           2           2           2           5           5           2
                2           2           2           2           2           5
   8            2           2           2           2           2           2           2           5           5           2
                2           2           2           2           2           5
   9            0           0           0           0           0           2           2           5           5           2
                2           2           2           2           2           5
  10            0           0           0           0           0           2           2           5           5           2
                2           2           2           2           2           5
  11            0           0           0           0           0           2           2           5           5           5
                5           5           5           5           5           5
  12            0           0           0           0           0           2           2           5           5           5
                5           5           5           5           5           5
  13            0           0           0           0           0           2           2           2           2           2
                2           2           2           2           2           5
  14            0           0           0           0           0           2           2           3           3           3
                3           3           3           3           3           6
  15            0           0           0           0           0           3           3           3           3           3
                3           3           3           3           3           6
  16            0           0           0           0           0           3           3           3           3           3
                3           3           3           3           3           6
  17            0           0           0           0           0           3           3           3           3           3
                3           3           3           3           3           6

 LPF1 -- LAYER PROPERTY FLOW PACKAGE, VERSION 1, 1/11/2000
         INPUT READ FROM UNIT   42
 # LPF file for test case tc3
 #
 HEAD AT CELLS THAT CONVERT TO DRY=   0.0000    
     3 Named Parameters     

   LAYER FLAGS:
 LAYER       LAYTYP        LAYAVG         CHANI        LAYVKA        LAYWET
 ---------------------------------------------------------------------------
    1             0             0     1.000E+00             0             0

   INTERPRETATION OF LAYER FLAGS:
                        INTERBLOCK     HORIZONTAL    DATA IN
         LAYER TYPE   TRANSMISSIVITY   ANISOTROPY   ARRAY VKA   WETTABILITY
 LAYER      (LAYTYP)      (LAYAVG)       (CHANI)      (LAYVKA)      (LAYWET)
 ---------------------------------------------------------------------------
    1      CONFINED      HARMONIC     1.000E+00    VERTICAL K  NON-WETTABLE

        544 ELEMENTS IN X ARRAY ARE USED BY LPF
          6 ELEMENTS IN IX ARRAY ARE USED BY LPF

 PCG2 -- CONJUGATE GRADIENT SOLUTION PACKAGE, VERSION 2.4, 12/29/98
 MAXIMUM OF      1 CALLS OF SOLUTION ROUTINE
 MAXIMUM OF     40 INTERNAL ITERATIONS PER CALL TO SOLUTION ROUTINE
 MATRIX PRECONDITIONING TYPE :    1
        624 ELEMENTS IN X ARRAY ARE USED BY PCG
        280 ELEMENTS IN IX ARRAY ARE USED BY PCG
        816 ELEMENTS IN Z ARRAY ARE USED BY PCG

 SEN1BAS6 -- SENSITIVITY PROCESS, VERSION 1.0, 10/15/98
 INPUT READ FROM UNIT   23
 # SEN file for test case tc3
 #

 NUMBER OF PARAMETER VALUES TO BE READ FROM SEN FILE:   12
 ISENALL............................................:    0
 SENSITIVITIES WILL BE STORED IN MEMORY
 FOR UP TO  12 PARAMETERS

        357 ELEMENTS IN X ARRAY ARE USED FOR SENSITIVITIES
        272 ELEMENTS IN Z ARRAY ARE USED FOR SENSITIVITIES
         24 ELEMENTS IN IX ARRAY ARE USED FOR SENSITIVITIES

 PES1BAS6 -- PARAMETER-ESTIMATION PROCESS, VERSION 1.0, 07/22/99
 INPUT READ FROM UNIT   24
 # PES file for test case tc3
 #

 MAXIMUM NUMBER OF PARAMETER-ESTIMATION ITERATIONS (MAX-ITER)  =    15
 MAXIMUM PARAMETER CORRECTION (MAX-CHANGE) ------------------- =  2.0000    
 CLOSURE CRITERION (TOL) ------------------------------------- = 0.10000E-04
 SUM OF SQUARES CLOSURE CRITERION (SOSC) --------------------- = 0.10000E-03

 FLAG TO GENERATE INPUT NEEDED BY BEALE-2000 (IBEFLG) -------- =     0
 FLAG TO GENERATE INPUT NEEDED BY YCINT-2000 (IYCFLG) -------- =     0
 OMIT PRINTING TO SCREEN (IF = 1) (IOSTAR) ------------------- =     0
 ADJUST GAUSS-NEWTON MATRIX WITH NEWTON UPDATES (IF = 1)(NOPT) =     0
 NUMBER OF FLETCHER-REEVES ITERATIONS (NFIT) ----------------- =     0
 CRITERION FOR ADDING MATRIX R (SOSR) ------------------------ =  0.0000    
 VALUE USED TO INCREMENT MARQUARDT PARAMETER (RMAR) ---------- = 0.10000E-02
 MARQUARDT PARAMETER MULTIPLIER (RMARM) ---------------------- =  1.5000    
 APPLY MAX-CHANGE IN REGRESSION SPACE (IF = 1) (IAP) --------- =     0

 FORMAT CODE FOR COVARIANCE AND CORRELATION MATRICES (IPRCOV)  =     2
 PRINT PARAMETER-ESTIMATION STATISTICS
     EACH ITERATION (IF > 0)  (IPRINT) ----------------------- =     0
 PRINT EIGENVALUES AND EIGENVECTORS OF
     COVARIANCE MATRIX (IF > 0)  (LPRINT) -------------------- =     0

 SEARCH DIRECTION ADJUSTMENT PARAMETER (CSA) ----------------- = 0.80000E-01
 MODIFY CONVERGENCE CRITERIA (IF > 0) (FCONV) ---------------- =  0.0000    
 CALCULATE SENSITIVITIES USING FINAL
     PARAMETER ESTIMATES (IF > 0) (LASTX) -------------------- =     0

 NUMBER OF USUALLY POS. PARAMETERS THAT MAY BE NEGATIVE (NPNG) =     0
 NUMBER OF PARAMETERS WITH CORRELATED PRIOR INFORMATION (IPR)  =     0
 NUMBER OF PRIOR-INFORMATION EQUATIONS (MPR) ----------------- =     6

        476 ELEMENTS IN X ARRAY ARE USED FOR PARAMETER ESTIMATION
        486 ELEMENTS IN Z ARRAY ARE USED FOR PARAMETER ESTIMATION
         17 ELEMENTS IN IX ARRAY ARE USED FOR PARAMETER ESTIMATION

 OBS1BAS6 -- OBSERVATION PROCESS, VERSION 1.0, 4/27/99
 INPUT READ FROM UNIT  21
 OBSERVATION GRAPH-DATA OUTPUT FILES
 WILL BE PRINTED AND NAMED USING THE BASE: tc3
 DIMENSIONLESS SCALED OBSERVATION SENSITIVITIES WILL BE PRINTED

 HEAD OBSERVATIONS -- INPUT READ FROM UNIT  22

 NUMBER OF HEADS....................................:   32
   NUMBER OF MULTILAYER HEADS.......................:    0
   MAXIMUM NUMBER OF LAYERS FOR MULTILAYER HEADS....:    0

       1704 ELEMENTS IN X ARRAY ARE USED FOR OBSERVATIONS
          2 ELEMENTS IN Z ARRAY ARE USED FOR OBSERVATIONS
        341 ELEMENTS IN IX ARRAY ARE USED FOR OBSERVATIONS

 COMMON ERROR VARIANCE FOR ALL OBSERVATIONS SET TO:       1.000    

       3705  ELEMENTS OF X ARRAY USED OUT OF       3705
       1576  ELEMENTS OF Z ARRAY USED OUT OF       1576
        668  ELEMENTS OF IX ARRAY USED OUT OF        668
       3264  ELEMENTS OF XHS ARRAY USED OUT OF       3264

 INFORMATION ON PARAMETERS LISTED IN SEN FILE
                                         LOWER         UPPER       ALTERNATE
                        VALUE IN SEN   REASONABLE    REASONABLE     SCALING
    NAME     ISENS  LN   INPUT FILE      LIMIT         LIMIT         FACTOR
 ----------  -----  --  ------------  ------------  ------------  ------------
 WQ_1          1     0    45.000        40.000        50.000       0.10000E-01
 WQ_2          1     0    420.00        320.00        520.00       0.10000    
 WQ_3          1     0   -97000.      -0.11000E+06   -90000.        100.00    
 WQ_4          1     0   -51000.       -61000.       -41000.        100.00    
 RCH_ZONE_1    1     0   0.40000E-03   0.40000E-04   0.40000E-02   0.10000E-05
 RCH_ZONE_2    1     0  -0.20000E-03  -0.20000E-02  -0.20000E-04   0.10000E-05
 RCH_ZONE_3    1     0   0.17000E-03   0.17000E-04   0.17000E-02   0.10000E-05
 rivers        1     1   0.80000E-01   0.70000E-01   0.90000E-01   0.10000E-03
 HK_1          1     1    70.000        40.000        100.00       0.10000E-01
 HK_2          1     1    420.00        320.00        520.00       0.10000    
 HK_3          1     1    15.000        10.000        20.000       0.10000E-01
 CONS_HEADS    1     0    1.0000       0.10000        10.000       0.10000E-01
 -----------------------------------------------------------------------------
 FOR THE PARAMETERS LISTED IN THE TABLE ABOVE, PARAMETER VALUES IN INDIVIDUAL
 PACKAGE INPUT FILES ARE REPLACED BY THE VALUES FROM THE SEN INPUT FILE.  THE
 ALTERNATE SCALING FACTOR IS USED TO SCALE SENSITIVITIES IF IT IS LARGER THAN
 THE PARAMETER VALUE IN ABSOLUTE VALUE AND THE PARAMETER IS NOT LOG-TRANSFORMED.

 ISENS IS GREATER THAN ZERO FOR   12 PARAMETERS

 EQUATIONS OF PRIOR INFORMATION ON PARAMETERS

  EQUATION     PRIOR      ----EQUATION TERMS-----               STAT-   PLOT
    NAME      ESTIMATE    COEFFICIENT  PARAMETER    STATISTIC   FLAG   SYMBOL
 ----------  -----------  -----------  ----------  -----------  -----  ------
 EQ-Q_3      -9.7000E+04    1.000      WQ_3          1940.        1       9
 EQ-Q_4      -5.1000E+04    1.000      WQ_4          1020.        1       9
 EQ-HK_2       420.0        1.000      HK_2         8.8000E-02   11       9
 EQ-RCH_1     4.0000E-04    1.000      RCH_ZONE_1   1.2000E-04    1       9
 EQ-RCH_3     1.7000E-04    1.000      RCH_ZONE_3   5.1000E-05    1       9
 EQ-KRB_1     8.0000E-02    1.000      RIVERS       8.0445E-03    1       9

 WARNING -- NPE > ND/3 : YOU MAY BE TRYING TO ESTIMATE TOO MANY
    PARAMETERS FOR THE DATA (PES1BAS6RP)


 HEAD OBSERVATION VARIANCES ARE MULTIPLIED BY:       1.000    

 OBSERVED HEAD DATA -- TIME OFFSETS ARE MULTIPLIED BY:   86400.    

                    REFER.
       OBSERVATION  STRESS    TIME                              STATISTIC   PLOT
  OBS#    NAME      PERIOD   OFFSET    OBSERVATION  STATISTIC     TYPE      SYM.
     1 head-1           1    0.000       69.22       1.000      VARIANCE       1
     2 head-2           1    0.000       80.58       1.000      VARIANCE       1
     3 head-3           1    0.000       72.66       1.000      VARIANCE       1
     4 head-4           1    0.000       49.55       1.000      VARIANCE       1
     5 head-5           1    0.000       10.04       1.000      VARIANCE       1
     6 head-6           1    0.000       7.660       1.000      VARIANCE       1
     7 head-7           1    0.000       11.44       1.000      VARIANCE       1
     8 head-8           1    0.000       13.50       1.000      VARIANCE       1
     9 head-9           1    0.000       4.600       1.000      VARIANCE       1
    10 head-10          1    0.000       5.300       1.000      VARIANCE       1
    11 head-11          1    0.000      -38.73       1.000      VARIANCE       1
    12 head-12          1    0.000       6.620       1.000      VARIANCE       1
    13 head-13          1    0.000       6.540       1.000      VARIANCE       1
    14 head-14          1    0.000       12.19       1.000      VARIANCE       1
    15 head-15          1    0.000       4.400       1.000      VARIANCE       1
    16 head-16          1    0.000      -61.07       1.000      VARIANCE       1
    17 head-17          1    0.000       6.440       1.000      VARIANCE       1
    18 head-18          1    0.000      -14.03       1.000      VARIANCE       1
    19 head-19          1    0.000       15.73       1.000      VARIANCE       1
    20 head-20          1    0.000       14.89       1.000      VARIANCE       1
    21 head-21          1    0.000       4.300       1.000      VARIANCE       1
    22 head-22          1    0.000      -16.15       1.000      VARIANCE       1
    23 head-23          1    0.000      -5.370       1.000      VARIANCE       1
    24 head-24          1    0.000       7.590       1.000      VARIANCE       1
    25 head-25          1    0.000       42.42       1.000      VARIANCE       1
    26 head-26          1    0.000       29.08       1.000      VARIANCE       1
    27 head-27          1    0.000       1.470       1.000      VARIANCE       1
    28 head-28          1    0.000      -7.420       1.000      VARIANCE       1
    29 head-29          1    0.000       6.580       1.000      VARIANCE       1
    30 head-30          1    0.000       4.020       1.000      VARIANCE       1
    31 head-31          1    0.000       85.49       1.000      VARIANCE       1
    32 head-32          1    0.000      0.9800       1.000      VARIANCE       1

                                                     HEAD CHANGE
                                                      REFERENCE
        OBSERVATION                   ROW     COL    OBSERVATION
  OBS#     NAME       LAY  ROW  COL  OFFSET  OFFSET   (IF > 0)
     1  head-1          1   17    8   0.000  -0.300        0
     2  head-2          1   17   15   0.000  -0.300        0
     3  head-3          1   16   13   0.200  -0.300        0
     4  head-4          1   15   11   0.200  -0.300        0
     5  head-5          1   14    7   0.200  -0.200        0
     6  head-6          1   13   12   0.200   0.400        0
     7  head-7          1   13   14   0.300   0.400        0
     8  head-8          1   13   16   0.400   0.000        0
     9  head-9          1   11   11   0.200  -0.300        0
    10  head-10         1   10    8   0.200  -0.300        0
    11  head-11         1    9   12   0.200  -0.300        0
    12  head-12         1   10   16   0.200  -0.300        0
    13  head-13         1    9    7   0.200  -0.300        0
    14  head-14         1    8    4   0.200  -0.300        0
    15  head-15         1    8    9   0.200  -0.300        0
    16  head-16         1    7   11   0.200  -0.300        0
    17  head-17         1    7    7   0.200  -0.300        0
    18  head-18         1    7   14   0.200  -0.300        0
    19  head-19         1    6    3   0.200  -0.300        0
    20  head-20         1    6    5   0.200  -0.300        0
    21  head-21         1    6    9   0.200  -0.300        0
    22  head-22         1    5   11   0.200  -0.300        0
    23  head-23         1    5   14   0.200  -0.300        0
    24  head-24         1    5   16   0.200  -0.300        0
    25  head-25         1    4    3   0.200  -0.300        0
    26  head-26         1    4    5   0.200  -0.300        0
    27  head-27         1    4   10   0.200  -0.300        0
    28  head-28         1    4   13   0.200  -0.300        0
    29  head-29         1    3    7  -0.500   0.200        0
    30  head-30         1    3   15   0.200  -0.300        0
    31  head-31         1    1    2   0.200  -0.300        0
    32  head-32         1    1   12   0.200  -0.300        0



                                    SOLUTION BY THE CONJUGATE-GRADIENT METHOD
                                   -------------------------------------------
                    MAXIMUM NUMBER OF CALLS TO PCG ROUTINE =        1
                        MAXIMUM ITERATIONS PER CALL TO PCG =       40
                               MATRIX PRECONDITIONING TYPE =        1
        RELAXATION FACTOR (ONLY USED WITH PRECOND. TYPE 1) =    0.10000E+01
 PARAMETER OF POLYNOMIAL PRECOND. = 2 (2) OR IS CALCULATED :        2
                         HEAD CHANGE CRITERION FOR CLOSURE =    0.10000E-04
                     RESIDUAL CHANGE CRITERION FOR CLOSURE =    0.10000E-04
            PCG HEAD AND RESIDUAL CHANGE PRINTOUT INTERVAL =        1
     PRINTING FROM SOLVER IS LIMITED(1) OR SUPPRESSED (>1) =        3
                                         DAMPING PARAMETER =    0.10000E+01

 CONVERGENCE CRITERIA FOR SENSITIVITIES
 PARAMETER      HCLOSE        RCLOSE
 ----------  ------------  ------------
 WQ_1         0.22222E-08   0.22222E-08
 WQ_2         0.23810E-09   0.23810E-09
 WQ_3         0.10309E-11   0.10309E-11
 WQ_4         0.19608E-11   0.19608E-11
 RCH_ZONE_1   0.25000E-03   0.25000E-03
 RCH_ZONE_2   0.50000E-03   0.50000E-03
 RCH_ZONE_3   0.58824E-03   0.58824E-03
 rivers       0.12500E-05   0.12500E-05
 HK_1         0.14286E-08   0.14286E-08
 HK_2         0.23810E-09   0.23810E-09
 HK_3         0.66667E-08   0.66667E-08
 CONS_HEADS   0.10000E-06   0.10000E-06
 --------------------------------------

 WETTING CAPABILITY IS NOT ACTIVE IN ANY LAYER

 PARAMETERS DEFINED IN THE LPF PACKAGE

 PARAMETER NAME:HK_1         TYPE:HK     CLUSTERS:   1
 Parameter value from package file is:    75.000    
 This value has been changed to:          70.000    , as read from
 the Sensitivity Process file
                LAYER:   1    MULTIPLIER ARRAY: NONE    ZONE ARRAY: L1_T_ZONES
                ZONE VALUES:    1    4

 PARAMETER NAME:HK_2         TYPE:HK     CLUSTERS:   1
 Parameter value from package file is:    425.00    
 This value has been changed to:          420.00    , as read from
 the Sensitivity Process file
                LAYER:   1    MULTIPLIER ARRAY: NONE    ZONE ARRAY: L1_T_ZONES
                ZONE VALUES:    2    5

 PARAMETER NAME:HK_3         TYPE:HK     CLUSTERS:   1
 Parameter value from package file is:    20.000    
 This value has been changed to:          15.000    , as read from
 the Sensitivity Process file
                LAYER:   1    MULTIPLIER ARRAY: NONE    ZONE ARRAY: L1_T_ZONES
                ZONE VALUES:    3    6

    HYD. COND. ALONG ROWS FOR LAYER   1 WILL BE DEFINED BY PARAMETERS
 (PRINT FLAG=   2)

      VERTICAL HYD. COND. =   1.00000     FOR LAYER   1


     4 Well parameters

 PARAMETER NAME:WQ_1         TYPE:Q   
 Parameter value from package file is:    50.000    
 This value has been changed to:          45.000    , as read from
 the Sensitivity Process file
   NUMBER OF ENTRIES:      6

 WELL NO.  LAYER   ROW   COL   STRESS FACTOR         
 ----------------------------------------------------
      1      1      1      1       10.00    
      2      1      1      2       10.00    
      3      1      1      3       10.00    
      4      1      1      4       10.00    
      5      1      1      5       10.00    
      6      1      1      6       10.00    

 PARAMETER NAME:WQ_2         TYPE:Q   
 Parameter value from package file is:    1.0000    
 This value has been changed to:          420.00    , as read from